LAMMPS (4 Jan 2019)
# 2d Lennard-Jones melt and subsequent energy minimization,
# followed by box relaxation to a target stress state
#
units		lj
dimension	2
atom_style	atomic

lattice		sq2 0.8442
Lattice spacing in x,y,z = 1.53919 1.53919 1.53919
region		box block 0 20 0 20 -0.1 0.1
create_box	1 box
Created orthogonal box = (0 0 -0.153919) to (30.7838 30.7838 0.153919)
create_atoms	1 box
Created 800 atoms
  Time spent = 0.000816299 secs
mass		1 1.0

velocity	all create 5.0 87287 loop geom

pair_style	lj/cut 2.5
pair_coeff	1 1 1.0 1.0 2.5
pair_modify	shift yes

neighbor	0.3 bin
neigh_modify	delay 0 every 1 check yes

fix		1 all nve
fix		2 all enforce2d

#dump		1 all atom 500 dump.min

#dump		2 all image 500 image.*.jpg type type #		zoom 1.6 adiam 1.5
#dump_modify	2 pad 4

#dump		3 all movie 500 movie.mpg type type #		zoom 1.6 adiam 1.5
#dump_modify	3 pad 4

thermo		100

run		1000
  update every 1 steps, delay 0 steps, check yes
Step Temp E_pair E_mol TotEng Press
0            5    -2.461717            0     2.532033    5.0190509
Averages over the last 6 of 11 rows, steps 500 to 1000:
Temp E_pair E_mol TotEng Press
3.33063 -0.794956 0 2.53151 15.5719
Loop time of 0.0666872 on 8 procs for 1000 steps with 800 atoms

# perform the box relaxation by progressively
# adding more degrees of freedom, for smoother
# convergence

neigh_modify	delay 0 every 1 check yes

velocity	all create 0.0 1
thermo		50

# atoms only

minimize	1.0e-6 0.001 1000 10000
Step Temp E_pair E_mol TotEng Press
1000            0  -0.76996308            0  -0.76996308    12.925537
Loop time of 0.0457946 on 8 procs for 356 steps with 800 atoms

Minimization stats:
  Stopping criterion = energy tolerance
  Energy initial, next-to-last, final =
  Force two-norm initial, final = 1953.14 0.793333
  Force max component initial, final = 359.633 0.167076
  Final line search alpha, max atom move = 0.199372 0.0333102
  Iterations, force evaluations = 356 705

# isotropic volume relaxation to hydrostatic target

fix             3 all box/relax iso 1.5 vmax 1.0e-3

variable        emin equal pe+f_3/atoms
thermo_style    custom step temp pe pxx pyy pxy f_3 v_emin

# anisotropic volume relaxation to hydrostatic target

minimize	0.0 10.0e0 10000 100000
Step Temp PotEng Pxx Pyy Pxy f_3 v_emin
1356            0   -2.8961315   -1.1822781   -1.3144519  0.063841046            0   -2.8961315
Loop time of 0.0109182 on 8 procs for 98 steps with 800 atoms

Minimization stats:
  Stopping criterion = force tolerance
  Energy initial, next-to-last, final =
  Force two-norm initial, final = 5208.94 8.80327
  Force max component initial, final = 5208.94 3.02799
  Final line search alpha, max atom move = 3.18148e-05 9.63348e-05
  Iterations, force evaluations = 98 154

fix             3 all box/relax aniso 1.5 vmax 1.0e-3

minimize	0.0 10.0 10000 100000
Step Temp PotEng Pxx Pyy Pxy f_3 v_emin
1454            0   -2.9117974     1.470832    1.5324827 0.00018286751            0   -2.9117974
Loop time of 0.000266317 on 8 procs for 1 steps with 800 atoms

Minimization stats:
  Stopping criterion = force tolerance
  Energy initial, next-to-last, final =
  Force two-norm initial, final = 39.3214 9.01724
  Force max component initial, final = 28.6034 3.25513
  Final line search alpha, max atom move = 3.49609e-05 0.000113802
  Iterations, force evaluations = 1 2

# anisotropic volume relaxation to non-hydrostatic target

fix             3 all box/relax x 1.0 y 2.0 vmax 1.0e-3

minimize	0.0 10.0 10000 100000
Step Temp PotEng Pxx Pyy Pxy f_3 v_emin
1455            0   -2.9119106    1.4990109    1.4963015 0.00060306917 3.5527137e-17   -2.9119106
Loop time of 0.0159562 on 8 procs for 135 steps with 800 atoms

Minimization stats:
  Stopping criterion = force tolerance
  Energy initial, next-to-last, final =
  Force two-norm initial, final = 624.444 9.69148
  Force max component initial, final = 443.568 4.56709
  Final line search alpha, max atom move = 0.000256278 0.00117044
  Iterations, force evaluations = 135 220

minimize	0.0 1.0 10000 100000
Step Temp PotEng Pxx Pyy Pxy f_3 v_emin
1590            0   -2.9135142   0.98521096     1.990553 -0.093382169            0   -2.9135142
Averages over the last 44 of 87 rows, steps 3700 to 5828:
Temp PotEng Pxx Pyy Pxy f_3 v_emin
0 -3.01758 0.969758 1.97119 0.194927 -0.0644677 -3.08205
Loop time of 0.554936 on 8 procs for 4238 steps with 800 atoms

Minimization stats:
  Stopping criterion = force tolerance
  Energy initial, next-to-last, final =
  Force two-norm initial, final = 17.6353 0.770261
  Force max component initial, final = 13.0003 0.360249
  Final line search alpha, max atom move = 0.000488846 0.000176106
  Iterations, force evaluations = 4238 8017

minimize	0.0 1.0e-2 10000 100000
Step Temp PotEng Pxx Pyy Pxy f_3 v_emin
5828            0   -3.0242112   0.97197311    1.9740751   0.21128815 7.1054274e-17   -3.0242112
Averages over the last 49 of 97 rows, steps 8200 to 10564:
Temp PotEng Pxx Pyy Pxy f_3 v_emin
0 -3.032 0.999737 1.99948 0.194085 -0.00385485 -3.03586
Loop time of 0.686253 on 8 procs for 4736 steps with 800 atoms

Minimization stats:
  Stopping criterion = force tolerance
  Energy initial, next-to-last, final =
  Force two-norm initial, final = 32.8368 0.00991611
  Force max component initial, final = 24.1007 0.00468193
  Final line search alpha, max atom move = 0.137768 0.000645018
  Iterations, force evaluations = 4736 9464

# Final refinement uses nreset to eliminate stress offset

fix             3 all box/relax x 1.0 y 2.0 vmax 1.0e-3 nreset 100

minimize	0.0 1.0e-4 10000 100000
Step Temp PotEng Pxx Pyy Pxy f_3 v_emin
10564            0   -3.0320603   0.99921464    1.9992176   0.19569268 3.5527137e-17   -3.0320603
Averages over the last 15 of 30 rows, steps 11300 to 11990:
Temp PotEng Pxx Pyy Pxy f_3 v_emin
0 -3.03204 1 2 0.195695 5.79827e-10 -3.03204
Loop time of 0.206553 on 8 procs for 1426 steps with 800 atoms

Minimization stats:
  Stopping criterion = force tolerance
  Energy initial, next-to-last, final =
  Force two-norm initial, final = 0.951527 9.96744e-05
  Force max component initial, final = 0.674086 5.4721e-05
  Final line search alpha, max atom move = 1 5.4721e-05
  Iterations, force evaluations = 1426 2852
