LAMMPS (4 Jan 2019)

units           lj
lattice         fcc 0.8442
Lattice spacing in x,y,z = 1.6796 1.6796 1.6796
boundary        f f f

region          ball   sphere   0.0 0.0 0.0 5.0
region          box    block  -10 10 -10 10 -10 10
region          half   block  -10  0 -10 10 -10 10

# add molecule ids so we can use chunk/atom
fix             0   all property/atom mol ghost yes

create_box      2  box
Created orthogonal box = (-16.796 -16.796 -16.796) to (16.796 16.796 16.796)
create_atoms    1  region ball
Created 2123 atoms
  Time spent = 0.00182727 secs

pair_style      lj/cut 4.0
pair_coeff      * *  1.0 1.0
mass            *    1.0
set             group all mol 1
  2123 settings made for mol

# label half the sphere with a different type for better visualization
set             region half   type 2
  1142 settings made for type

# use a dynamic group (may require a patch to fix addtorque with older versions of LAMMPS)
group           ball   dynamic all   region ball
dynamic group ball defined

neigh_modify    delay 2  every 1  check yes

minimize        0.0  0.0    1000  10000
  update every 1 steps, delay 0 steps, check yes
Step Temp E_pair E_mol TotEng Press
0            0   -6.2285099            0   -6.2285099  -0.38871568
Loop time of 2.29281 on 8 procs for 1000 steps with 2123 atoms

Minimization stats:
  Stopping criterion = max iterations
  Energy initial, next-to-last, final =
  Force two-norm initial, final = 197.762 3.39601e-12
  Force max component initial, final = 7.88704 1.4877e-13
  Final line search alpha, max atom move = 1 1.4877e-13
  Iterations, force evaluations = 1000 1994

reset_timestep  0

velocity        all create 1.2 12351235

fix             1   all  nve
fix             2   all  wall/reflect  xlo EDGE xhi EDGE ylo EDGE yhi EDGE zlo EDGE zhi EDGE

compute 1 all chunk/atom molecule
compute 2 ball omega/chunk 1
compute 3 ball inertia/chunk 1

# compute rotational kinetic energy: 1/2 * I * omega**2
variable r_ke_x equal c_2[1][1]*c_2[1][1]*c_3[1][1]*0.5
variable r_ke_y equal c_2[1][2]*c_2[1][2]*c_3[1][2]*0.5
variable r_ke_z equal c_2[1][3]*c_2[1][3]*c_3[1][3]*0.5

# output moments of inertia for x,y,z and angular velocity as well as rotational kinertic energy

thermo_style custom step ke pe c_3[1][1] c_3[1][2] c_3[1][3] c_2[1][1] c_2[1][2] c_2[1][3] v_r_ke_x v_r_ke_y v_r_ke_z
thermo 500

# dump 1 all atom 100 dump.lammpstrj

# dump 2 all movie 10 ball.mp4 type mass

# equilibration w/o torque added
run 1000 post no
Step KinEng PotEng c_3[1][1] c_3[1][2] c_3[1][3] c_2[1][1] c_2[1][2] c_2[1][3] v_r_ke_x v_r_ke_y v_r_ke_z
0    1.7991521   -7.3616908    51125.265    51125.265    51125.265 -0.0010818646 -0.0022402573 -0.0032997613  0.029919298   0.12829253   0.27833679
Loop time of 0.860915 on 8 procs for 1000 steps with 2123 atoms

# start spinning the ball. rotation around z should increase and Erot_z should grow
fix 4 ball addtorque 0.0 0.0 200.0
run 10000 upto  post no
Step KinEng PotEng c_3[1][1] c_3[1][2] c_3[1][3] c_2[1][1] c_2[1][2] c_2[1][3] v_r_ke_x v_r_ke_y v_r_ke_z
1000   0.79800718   -6.3415142    53799.907    54068.412    54194.349 -0.0011293549 -0.0019181973 -0.0033488203  0.034309344   0.09947184   0.30388391
Averages over the last 10 of 19 rows, steps 5500 to 10000:
KinEng PotEng c_3[1][1] c_3[1][2] c_3[1][3] c_2[1][1] c_2[1][2] c_2[1][3] v_r_ke_x v_r_ke_y v_r_ke_z
0.92242 -6.27121 53505.9 53371.6 53828.3 -0.000461609 -0.00216663 0.119006 0.0113094 0.143487 399.341
Loop time of 8.20083 on 8 procs for 9000 steps with 2123 atoms

# continue without adding more torque. rotation continues at fixed speed
unfix 4
run 5000
Step KinEng PotEng c_3[1][1] c_3[1][2] c_3[1][3] c_2[1][1] c_2[1][2] c_2[1][3] v_r_ke_x v_r_ke_y v_r_ke_z
10000    1.0622662   -6.2708404    53269.458    54055.941    53994.588 -0.00042665324 -0.0028034829   0.15992681 0.0048483993   0.21242677    690.49855
Averages over the last 6 of 11 rows, steps 12500 to 15000:
KinEng PotEng c_3[1][1] c_3[1][2] c_3[1][3] c_2[1][1] c_2[1][2] c_2[1][3] v_r_ke_x v_r_ke_y v_r_ke_z
1.03612 -6.24378 52363.5 52410.1 54919.8 -0.00159482 -0.00298823 0.152798 0.0839108 0.261861 641.112
Loop time of 4.31374 on 8 procs for 5000 steps with 2123 atoms
