LAMMPS (4 Jan 2019)
# INPUT FILE FOR DPD_Fluid

##log             #log.dpde-vv
boundary        p p p

units           metal  # ev, ps
atom_style      dpd
read_data       data.dpd
  orthogonal box = (-64.5 -64.5 -64.5) to (64.5 64.5 64.5)
  reading atoms ...
  10125 atoms
  reading velocities ...
  10125 velocities

comm_modify     mode single vel yes
mass            1 125.9

pair_style      dpd/fdt/energy 8.6 245455
pair_coeff      1 1 0.075 0.022 3.2E-05 8.60

neighbor        2.0 bin
neigh_modify    every 1 delay 0 check no once no

timestep        0.001

fix             1 all dpd/energy
fix             2 all nve
fix             3 all eos/cv 0.00517041

compute         dpdU all dpd

variable        totEnergy equal pe+ke+c_dpdU[1]+c_dpdU[2]

thermo          10
thermo_style    custom step temp press pe ke c_dpdU[1] c_dpdU[2] v_totEnergy c_dpdU[4]
thermo_modify   format float %24.16f

run             1000
  update every 1 steps, delay 0 steps, check no
Step Temp Press PotEng KinEng c_dpdU[1] c_dpdU[2] v_totEnergy c_dpdU[4]
0     301.4391322267260307    1452.7632571269366508    1188.6488072196161738     394.4722035796050932       0.0000000000000000   15705.1203749997293926   17288.2413857989522512     299.9999999999971010
Averages over the last 51 of 101 rows, steps 500 to 1000:
Temp Press PotEng KinEng c_dpdU[1] c_dpdU[2] v_totEnergy c_dpdU[4]
300.331 1527.03 1187.63 393.023 0 15707.5 17288.2 300.018
Loop time of 3.05465 on 8 procs for 1000 steps with 10125 atoms
