LAMMPS (4 Jan 2019)
# 3D copper block simulation
boundary    p p p
units       metal
atom_style  atomic

# geometry
read_data	data.pos
  triclinic box = (0 0 0) to (20.4495 17.7098 16.697) with tilt (10.2248 10.2248 5.90327)
  reading atoms ...
  512 atoms

# EAM potential
pair_style  	eam/opt
pair_coeff   	* * cuu3.eam
neighbor       0.5 nsq
neigh_modify   every 1 delay 0 check yes

#Langevin random seed
variable r equal 57085
variable t equal 300
variable d equal 1

# initialize
velocity all create $t 28459 rot yes dist gaussian mom yes
velocity all create 300 28459 rot yes dist gaussian mom yes
reset_timestep 0

# fixes
fix      1 all npt temp $t $t $d iso 1. 1. 1. pchain 8 drag 1.0
fix      1 all npt temp 300 $t $d iso 1. 1. 1. pchain 8 drag 1.0
fix      1 all npt temp 300 300 $d iso 1. 1. 1. pchain 8 drag 1.0
fix      1 all npt temp 300 300 1 iso 1. 1. 1. pchain 8 drag 1.0
fix      2 all phonon 10 50000 500000 map.in CuPhonon

#
timestep 2e-3

# output
#                    1    2    3  4  5     6   7  8  9  10 11 12
thermo_style  custom step temp pe ke press vol lx ly lz xy xz yz
thermo  100

restart 2000000 restart.one restart.two

# execution
run 	 65000
  update every 1 steps, delay 0 steps, check yes
Step Temp PotEng KinEng Press Volume Lx Ly Lz Xy Xz Yz
0          300     -1812.48     19.81558    3500.1579    6046.9291    20.449528    17.709811     16.69697    10.224764    10.224764    5.9032703
Averages over the last 326 of 651 rows, steps 32500 to 65000:
Temp PotEng KinEng Press Volume Lx Ly Lz Xy Xz Yz
300.197 -1792.08 19.8286 73.6945 6135.94 20.5494 17.7963 16.7785 10.2747 10.2747 5.93209
Loop time of 15.1419 on 8 procs for 65000 steps with 512 atoms

write_restart Restart.final

Please see the log.cite file for references relevant to this simulation
