LAMMPS (6 Jul 2017)
###############################################################################
#
#
#  This input script is a modified version of the example script spce_hex.lmp
#  which is part of the supplementary (open access) material of the paper
#
#  P. Wirnsberger, D. Frenkel and C. Dellago,
#  "An enhanced version of the heat exchange algorithm with excellent energy
#  conservation properties", J. Chem. Phys. 143, 124104 (2015).
#
#  The full article is available on arXiv: http://arxiv.org/pdf/1507.07081.
#
#
#  Description:
#  ------------
#
#  This file is a LAMMPS input script for carrying out a NEMD simulation of
#  SPC/E water using the HEX/a algorithm. The run produces two files:
#  "out.Tspce_hex" contains the temperature profile and "out.Espce_hex" the time
#  evolution of the total energy.
#
###############################################################################

# energy flux into the reservoir
 variable F         	equal 0.075

# timestep
 variable dt             equal 2.0

# simulation time for the production run (1 ns)
 variable tprod      	equal 5000

# total number of timesteps
 variable Nprod      	equal floor(5000/2)

# parameters for the SPC/E model
 variable epsOO       	equal 0.15535
 variable sigOO       	equal 3.166
 variable theta       	equal 109.47

# long-range and short-range cutoffs, respectively
 variable cutC        	equal (xhi-xlo)/2.
 variable cutLJ  	equal 11

# specification of units, spatial dimensions, boundary conditions and atom-style
 units        real
 dimension    3
 boundary     p p p
 atom_style   full
 read_data    "data.spce"
  orthogonal box = (-12.6314 -12.6314 -25.2628) to (12.6314 12.6314 25.2628)
  reading atoms ...
  3072 atoms
  reading velocities ...
  3072 velocities
  scanning bonds ...
  scanning angles ...
  reading bonds ...
  2048 bonds
  reading angles ...
  1024 angles

# group atoms to molecules
 group    O type 2
1024 atoms in group O
 group    H type 1
2048 atoms in group H
 group    water type 1 2
3072 atoms in group water

# define the pair style with long-range Coulomb interaction
# and short-range LJ interaction
 pair_style    	lj/cut/coul/long 11 12.6314
 pair_coeff    	2 2 0.15535 3.166
 pair_coeff    	1 2 0 0
 pair_coeff    	1 1 0 0

# use Ewald summation with a precision of 1.e-5
 kspace_style   ewald 1.e-5

# use harmonic bonds between sites of a molecules
# NOTE: this will not have any effects as we use RATTLE to keep the bonds fixed,
#       but it is recommended.
 bond_style    	harmonic
 angle_style   	harmonic
 bond_coeff    	1 1000.00 1.000
 angle_coeff   	1 100.0 109.47

# use standard correction terms for the truncated tail of the LJ potential
 pair_modify tail yes

# increase neigbor skin because of the large timestep
 neighbor  4.5 bin

 variable    Nsamp    equal 10
 variable    Nrepeat  equal floor(2500/10)
 variable    Nevery   equal 10*250

# compute the centre of mass velocity of the box (vcmx, vcmy, vcmz)
 variable vcmx equal "vcm(all,x)"
 variable vcmy equal "vcm(all,y)"
 variable vcmz equal "vcm(all,z)"
 variable vcm2 equal round(100000000000000000000*(v_vcmx*v_vcmx+v_vcmy*v_vcmy+v_vcmz*v_vcmz))/100000000000000000000

# compute temperature, pressure, potential energy, kinetic energy and total energy
 compute   cT  all temp
 compute   cP  all pressure thermo_temp
 compute   cPe all pe
 compute   cKe all ke
 variable  vE  equal c_cKe+c_cPe

# specify the reservoir extents
 variable Lz          equal zhi-zlo
 variable delta       equal 4
 variable dz          equal 50.5255/60
 variable zlo_Thi     equal -50.5255/4.-4/2.
 variable zhi_Thi     equal -14.631375+4
 variable zlo_Tlo     equal 50.5255/4.-4/2.
 variable zhi_Tlo     equal 10.631375+4

# create regions of low and high temperature and apply thermostats
 region   Thi_region     block INF INF INF INF -14.631375 -10.631375
 region   Tlo_region     block INF INF INF INF 10.631375 14.631375

# compute temperature of reservoirs using 3 degrees of freedom for every atom
 compute  cTlo   water temp/region Tlo_region
 compute  cThi   water temp/region Thi_region

# rescale temperature to correct for the constraint bonds (6 instead of 9 degrees of freedom per molecule)
 variable  Tlo_act    equal c_cTlo/2*3
 variable  Thi_act    equal c_cThi/2*3

# thermostat the reservoirs using the eHEX algorithm
# NOTE: add the keyword "hex" at the end of each of the two following lines
#       if you want to use the HEX algorithm.

 fix fHi all ehex 1  0.075   region Thi_region com constrain hex
 fix fLo all ehex 1 -0.075   region Tlo_region com constrain hex

# use velocity Verlet integration
 fix fNVE all nve

# calculate the (kinetic) temperature from the kinetic
# energy per atom
# kB is Boltzmann's constant
# NOTE: For simplicity, we do not subtract the centre of mass
#       velocity of the individual slabs in this example script.
#       However, we did take this into account in the publication.
#       (The differences are negligible for our setup.)

 variable  kB  equal  0.001987204
 compute   ke  water  ke/atom
 variable  T   atom   c_ke/0.001987204

# use RATTLE with a precision of 1.e-10
 fix    fRattle all rattle 1e-10 400 0 b 1 a 1

# output the timestep, temperatures (average, cold reservoir, hot reservoir), energies (kinetic, potential and total),
# pressure and squared com velocity every 100 timesteps
 reset_timestep  0
 timestep        2

 thermo_style    custom step temp v_Tlo_act v_Thi_act ke pe etotal press v_vcm2
 thermo          100

 compute         cchT  all  chunk/atom bin/1d z lower 0.842091666666667
 fix             fchT  all  ave/chunk  10 250 2500 cchT v_T file out.Tspce_hex

 fix             fE    all  ave/time 10 500 5000 v_vE file out.Espce_hex
 run             2500
Ewald initialization ...
  G vector (1/distance) = 0.234029
  estimated absolute RMS force accuracy = 0.00363217
  estimated relative force accuracy = 1.09382e-05
  KSpace vectors: actual max1d max3d = 903 11 6083
                  kxmax kymax kzmax  = 6 6 11
  update every 1 steps, delay 10 steps, check yes
Step Temp v_Tlo_act v_Thi_act KinEng PotEng TotEng Press v_vcm2
0    399.28553    345.31026    514.38426    2436.3278    -10062.57   -7626.2426    342.82044            0
Averages over the last 13 of 26 rows, steps 1300 to 2500:
Temp v_Tlo_act v_Thi_act KinEng PotEng TotEng Press v_vcm2
400.473 337.183 473.119 2443.57 -10070.1 -7626.5 506.533 0
Loop time of 222.712 on 1 procs for 2500 steps with 3072 atoms
