LAMMPS (24 Aug 2020)
# 2d polygon nparticle bodies

units		lj
dimension       2
atom_style	body nparticle 2 6

read_data       data.body
Reading data file ...
  orthogonal box = (-15.532225 -15.532225 -0.5) to (15.532225 15.532225 0.5)
  reading atoms ...
  100 atoms
  100 bodies

velocity	all create 1.44 87287 loop geom

pair_style	body/nparticle 5.0
pair_coeff	* * 1.0 1.0

neighbor	0.3 bin

fix		1 all nve/body
fix		2 all enforce2d

#compute         1 all body/local type 1 2 3
#dump            1 all local 100 dump.body index c_1[1] c_1[2] c_1[3] c_1[4]

thermo          500
run		10000
  update every 1 steps, delay 10 steps, check yes
Step Temp E_pair E_mol TotEng Press
0         1.44  -0.63799525            0   0.78760475  -0.15028724
Averages over the last 11 of 21 rows, steps 5000 to 10000:
Temp E_pair E_mol TotEng Press
1.718 -1.69857 0 0.00225116 0.274635
Loop time of 2.34678 on 8 procs for 10000 steps with 100 atoms
