LAMMPS (4 Jan 2019)
# sample LAMMPS input script for thermal conductivity of liquid LJ
# Muller-Plathe method via fix thermal_conductivity

# settings

variable	x equal 10
variable	y equal 10
variable	z equal 20

variable	rho equal 0.6
variable        t equal 1.35
variable	rc equal 2.5

#variable	rho equal 0.85
#variable        t equal 0.7
#variable	rc equal 3.0

# setup problem

units		lj
atom_style	atomic

lattice		fcc 0.6
Lattice spacing in x,y,z = 1.88207 1.88207 1.88207
region		box block 0 $x 0 $y 0 $z
region		box block 0 10 0 $y 0 $z
region		box block 0 10 0 10 0 $z
region		box block 0 10 0 10 0 20
create_box	1 box
Created orthogonal box = (0 0 0) to (18.8207 18.8207 37.6414)
create_atoms	1 box
Created 8000 atoms
  Time spent = 0.0011959 secs
mass		1 1.0

velocity	all create $t 87287
velocity	all create 1.35 87287

pair_style	lj/cut 2.5
pair_coeff	1 1 1.0 1.0

neighbor	0.3 bin
neigh_modify	delay 0 every 1

# 1st equilibration run

fix		1 all nvt temp $t $t 0.5
fix		1 all nvt temp 1.35 $t 0.5
fix		1 all nvt temp 1.35 1.35 0.5
thermo		100
run		1000
  update every 1 steps, delay 0 steps, check yes
Step Temp E_pair E_mol TotEng Press
0         1.35   -4.1241917            0   -2.0994448   -3.1961612
Averages over the last 6 of 11 rows, steps 500 to 1000:
Temp E_pair E_mol TotEng Press
1.35275 -3.70205 0 -1.67318 0.863349
Loop time of 0.970362 on 8 procs for 1000 steps with 8000 atoms

velocity	all scale $t
velocity	all scale 1.35

unfix		1

# 2nd equilibration run

compute		ke all ke/atom
variable	temp atom c_ke/1.5

fix		1 all nve

compute         layers all chunk/atom bin/1d z lower 0.05 units reduced
fix		2 all ave/chunk 10 100 1000 layers v_temp file profile.mp

fix		3 all thermal/conductivity 10 z 20

variable        tdiff equal f_2[11][3]-f_2[1][3]
thermo_style	custom step temp epair etotal f_3 v_tdiff

thermo		1000
run		2000
Step Temp E_pair TotEng f_3 v_tdiff
1000         1.35   -3.7100044   -1.6852575            0            0
Loop time of 2.01165 on 8 procs for 2000 steps with 8000 atoms

# thermal conductivity calculation
# reset fix thermal/conductivity to zero energy accumulation

fix		3 all thermal/conductivity 10 z 20

fix             ave all ave/time 1 1 1000 v_tdiff ave running
thermo_style	custom step temp epair etotal f_3 v_tdiff f_ave

run		2000
Step Temp E_pair TotEng f_3 v_tdiff f_ave
3000     1.359979   -3.7268343   -1.6871208            0   0.40845169   0.40845169
Loop time of 2.18145 on 8 procs for 2000 steps with 8000 atoms
