LAMMPS (6 Jul 2017)
# GCMC for CO2 molecular fluid, rigid/small/nvt dynamics
# Rigid CO2 TraPPE model
# [Potoff and J.I. Siepmann, Vapor-liquid equilibria of
# mixtures containing alkanes, carbon dioxide and
# nitrogen AIChE J., 47,1676-1682 (2001)].

# variables available on command line

variable        mu index -8.1
variable	disp index 0.5
variable        temp index 338.0
variable        lbox index 10.0
variable        spacing index 5.0

# global model settings

units           real
atom_style      full
boundary        p p p
pair_style      lj/cut/coul/long  14
pair_modify     mix arithmetic tail yes
kspace_style    ewald 0.0001
bond_style      harmonic
angle_style     harmonic

# box, start molecules on simple cubic lattice

lattice 	sc 5.0
Lattice spacing in x,y,z = 5 5 5
region          box block 0 10.0 0 10.0 0 10.0 units box
create_box      2 box                                       bond/types 1                                angle/types 1                               extra/bond/per/atom 2                       extra/angle/per/atom 1                      extra/special/per/atom 2
Created orthogonal box = (0 0 0) to (10 10 10)
molecule        co2mol CO2.txt
Read molecule co2mol:
  3 atoms with 2 types
  2 bonds with 1 types
  1 angles with 1 types
  0 dihedrals with 0 types
  0 impropers with 0 types
molecule        h2omol H2O.txt
Read molecule h2omol:
  3 atoms with 2 types
  2 bonds with 1 types
  1 angles with 1 types
  0 dihedrals with 0 types
  0 impropers with 0 types
create_atoms   	0 box mol h2omol 464563 units box
Created 24 atoms

# rigid SPC/E water model

pair_coeff      1 1 0.15535 3.166
pair_coeff      * 2 0.0000 0.0000

bond_coeff      1     1000       1.0
angle_coeff     1      100       109.47

# masses

mass 1 15.9994
mass 2 1.0

# MD settings

group           h2o type 1 2
24 atoms in group h2o
neighbor        2.0 bin
neigh_modify    every 1 delay 1 check yes
velocity       	all create 338.0 54654
timestep        1.0

minimize 0.0 0.0 100 1000
Ewald initialization ...
  G vector (1/distance) = 0.170448
  estimated absolute RMS force accuracy = 0.0332064
  estimated relative force accuracy = 0.0001
  KSpace vectors: actual max1d max3d = 16 2 62
                  kxmax kymax kzmax  = 2 2 2
  update every 1 steps, delay 0 steps, check yes
Step Temp E_pair E_mol TotEng Press
0          338   -4.1890564 9.2628112e-06     18.98377    739.06991
Loop time of 0.0513496 on 1 procs for 100 steps with 24 atoms

Minimization stats:
  Stopping criterion = max iterations
  Energy initial, next-to-last, final =
  Force two-norm initial, final = 18.0027 42.4511
  Force max component initial, final = 5.8993 16.0523
  Final line search alpha, max atom move = 0.00353207 0.056698
  Iterations, force evaluations = 100 238

reset_timestep 0
# rigid constraints with thermostat

fix             mynvt all nvt temp 338.0 338.0 100
fix             wshake  all shake 0.0001 50 0 b 1 a 1 mol h2omol
# gcmc

run 1000
Ewald initialization ...
  G vector (1/distance) = 0.170448
  estimated absolute RMS force accuracy = 0.0332064
  estimated relative force accuracy = 0.0001
  KSpace vectors: actual max1d max3d = 16 2 62
                  kxmax kymax kzmax  = 2 2 2
Step Temp E_pair E_mol TotEng Press
0    518.26667   -30.182886            0   -7.0100684     993.1985
Loop time of 0.142857 on 1 procs for 1000 steps with 24 atoms

variable        tfac equal 5.0/3.0 # (3 trans + 2 rot)/(3 trans)
fix             mygcmc all gcmc 100 100 0 0 54341 338.0 -8.1 0.5 mol                 h2omol tfac_insert 1.66666666666667 group h2o shake wshake

# output

variable	tacc equal f_mygcmc[2]/(f_mygcmc[1]+0.1)
variable	iacc equal f_mygcmc[4]/(f_mygcmc[3]+0.1)
variable	dacc equal f_mygcmc[6]/(f_mygcmc[5]+0.1)
variable	racc equal f_mygcmc[8]/(f_mygcmc[7]+0.1)
compute_modify  thermo_temp dynamic/dof yes
thermo_style    custom step temp press pe ke density atoms v_iacc v_dacc v_tacc v_racc
thermo          1000

# run

run             5000
Ewald initialization ...
  G vector (1/distance) = 0.170448
  estimated absolute RMS force accuracy = 0.0332064
  estimated relative force accuracy = 0.0001
  KSpace vectors: actual max1d max3d = 16 2 62
                  kxmax kymax kzmax  = 2 2 2
0 atoms in group FixGCMC:gcmc_exclusion_group:mygcmc
0 atoms in group FixGCMC:rotation_gas_atoms:mygcmc
Step Temp Press PotEng KinEng Density Atoms v_iacc v_dacc v_tacc v_racc
1000     326.9865   -4.3509713   -62.258445     14.62027   0.23910963       24            0            0            0            0
Loop time of 43.7648 on 1 procs for 5000 steps with 102 atoms
