LAMMPS (18 Jun 2019)
# Tethered nanorods

atom_style	molecular

read_data	data.rigid.tnr
  orthogonal box = (-31.122 -31.122 -31.122) to (31.122 31.122 31.122)
  reading atoms ...
  5600 atoms
  scanning bonds ...
  reading bonds ...
  1600 bonds

# Specify bond parameters

bond_style	fene
bond_coeff	1 30.0 1.5 1.0 1.0

special_bonds	fene

# Specify initial velocities

velocity	all create 1.4 109345

# Specify rigid components

group		rods type 2
4000 atoms in group rods
group		tethers	subtract all rods
1600 atoms in group tethers

neigh_modify 	exclude	molecule/intra rods delay 0 every 1

# Specify the pair potentials

pair_style	lj/cut	2.5
pair_modify	shift	yes
pair_coeff	* * 1.0	1.0 1.122
pair_coeff	2 2 1.0 1.0 2.5

# Specify output

thermo	100
thermo_style custom step temp pe etotal press enthalpy lx ly lz pxx pyy pzz
thermo_modify flush yes lost warn

timestep	0.005

fix	1	rods	rigid molecule
800 rigid bodies with 4000 atoms
fix	2	tethers	nve
fix	3	all	langevin 1.4 1.4 1.0 437624

run	5000
  update every 1 steps, delay 0 steps, check yes
Step Temp PotEng TotEng Press Enthalpy Lx Ly Lz Pxx Pyy Pzz
0    1.3963219    5.9478449    7.0445809  0.048565317      9.13595       62.244       62.244       62.244 0.0091983659   0.11850113  0.017996458
Averages over the last 26 of 51 rows, steps 2500 to 5000:
Temp PotEng TotEng Press Enthalpy Lx Ly Lz Pxx Pyy Pzz
1.40047 5.91012 7.01012 0.00428116 7.19448 62.244 62.244 62.244 0.00542159 0.00407298 0.00334892
Loop time of 3.09603 on 8 procs for 5000 steps with 5600 atoms

# Replace fix rigid and fix langevin with new ones

unfix	1
unfix	3

fix	3	tethers langevin 1.4 1.4 1.0 198450

# Test different integrators for rods

fix	1 rods	rigid/nve molecule
800 rigid bodies with 4000 atoms
print 	"rigid/nve"
rigid/nve
run	1000
Step Temp PotEng TotEng Press Enthalpy Lx Ly Lz Pxx Pyy Pzz
5000    1.4013545     5.900503    7.0011919 -0.0088534081    6.6199374       62.244       62.244       62.244 -0.038474586   0.04052875 -0.028614388
Averages over the last 6 of 11 rows, steps 5500 to 6000:
Temp PotEng TotEng Press Enthalpy Lx Ly Lz Pxx Pyy Pzz
1.40806 5.88624 6.9922 0.00446338 7.1844 62.244 62.244 62.244 0.00563331 0.00375701 0.00399981
Loop time of 0.704346 on 8 procs for 1000 steps with 5600 atoms

unfix	1

fix	1 rods	rigid/nvt molecule temp 1.4 1.4 1.0
800 rigid bodies with 4000 atoms
print 	"rigid/nvt"
rigid/nvt
run	1000
Step Temp PotEng TotEng Press Enthalpy Lx Ly Lz Pxx Pyy Pzz
6000    1.4079122    5.8784441    6.9842837  0.013852722    7.5808237       62.244       62.244       62.244  0.017867024   0.05944409 -0.035752948
Averages over the last 6 of 11 rows, steps 6500 to 7000:
Temp PotEng TotEng Press Enthalpy Lx Ly Lz Pxx Pyy Pzz
1.41157 5.88964 6.99835 0.00440171 7.1879 62.244 62.244 62.244 0.00371714 0.0057221 0.00376588
Loop time of 0.712079 on 8 procs for 1000 steps with 5600 atoms

unfix	1

compute	myTemp all temp

fix	1 rods	rigid/npt molecule temp 1.4 1.4 1.0 iso 0.05 0.05 1.0         dilate all
800 rigid bodies with 4000 atoms
print 	"rigid/npt iso"
rigid/npt iso
fix_modify 1 temp myTemp

run	1000
Step Temp PotEng TotEng Press Enthalpy Lx Ly Lz Pxx Pyy Pzz
7000    1.3958454    5.8911864    6.9875482  0.039504439    8.6887285       62.244       62.244       62.244  0.019992912  0.024197639  0.074322765
Averages over the last 6 of 11 rows, steps 7500 to 8000:
Temp PotEng TotEng Press Enthalpy Lx Ly Lz Pxx Pyy Pzz
1.53502 5.62699 6.83266 0.0330086 7.07383 34.9209 34.9209 34.9209 0.0296522 0.034431 0.0349426
Loop time of 1.14364 on 8 procs for 1000 steps with 5600 atoms

unfix	1

fix	1 rods	rigid/npt molecule temp 1.4 1.4 1.0 x 0.05 0.05 1.0 dilate all
800 rigid bodies with 4000 atoms
print 	"rigid/npt x"
rigid/npt x
run	1000
Step Temp PotEng TotEng Press Enthalpy Lx Ly Lz Pxx Pyy Pzz
8000    1.4937158    5.5371433    6.7103771  0.092944424    7.2677183    32.262297    32.262297    32.262297   0.38215342  -0.18459297  0.081272824
Averages over the last 6 of 11 rows, steps 8500 to 9000:
Temp PotEng TotEng Press Enthalpy Lx Ly Lz Pxx Pyy Pzz
1.4297 5.38386 6.50681 0.0340727 6.68893 28.4938 32.2623 32.2623 0.0279236 0.0349403 0.0393541
Loop time of 1.11743 on 8 procs for 1000 steps with 5600 atoms

unfix	1

fix	1 rods	rigid/nph molecule iso 0.05 0.05 1.0 dilate all
800 rigid bodies with 4000 atoms
print 	"rigid/nph iso"
rigid/nph iso
run	1000
Step Temp PotEng TotEng Press Enthalpy Lx Ly Lz Pxx Pyy Pzz
9000    1.4294277    5.3306637    6.4534026   0.25369436    7.7414175    27.315396    32.262297    32.262297  0.091328787   0.49807466   0.17167963
Averages over the last 6 of 11 rows, steps 9500 to 10000:
Temp PotEng TotEng Press Enthalpy Lx Ly Lz Pxx Pyy Pzz
1.43897 5.25139 6.38162 0.0552943 6.63161 26.2193 30.9676 30.9676 0.0552027 0.0581415 0.0525387
Loop time of 1.14909 on 8 procs for 1000 steps with 5600 atoms

unfix	1

fix	1 rods	rigid/nph molecule x 0.05 0.05 1.0 y 0.05 0.05 1.0         couple xy dilate all
800 rigid bodies with 4000 atoms
print 	"rigid/nph xy couple"
rigid/nph xy couple
run	1000
Step Temp PotEng TotEng Press Enthalpy Lx Ly Lz Pxx Pyy Pzz
10000    1.4357553    5.2287582    6.3564671   0.03104867    6.4905658    25.882013    30.569324    30.569324    0.1893712  -0.43088055   0.33465536
Averages over the last 6 of 11 rows, steps 10500 to 11000:
Temp PotEng TotEng Press Enthalpy Lx Ly Lz Pxx Pyy Pzz
1.42383 5.18647 6.30482 0.0416029 6.4776 25.4254 30.03 30.5693 0.0427859 0.049754 0.0322687
Loop time of 1.17195 on 8 procs for 1000 steps with 5600 atoms
