LAMMPS (30 Jun 2020)
variable number	equal 1
variable ofreq	equal 10000
variable efreq	equal 10000

variable ntype equal 4

variable T equal 0.1

units lj

dimension 3

newton off

boundary  p p p

atom_style hybrid bond ellipsoid
atom_modify sort 0 1.0

# Pair interactions require lists of neighbours to be calculated
neighbor 2.0 bin
neigh_modify every 10 delay 0 check yes
special_bonds lj 0 1 1 coul 1 1 1

read_data data.duplex4.4type
  orthogonal box = (-20 -20 -20) to (20 20 20)
  reading atoms ...
  26 atoms
  reading velocities ...
  26 velocities
  26 ellipsoids
  scanning bonds ...
  reading bonds ...
  24 bonds
mass * 3.1575

group all type 1 4
26 atoms in group all

# oxDNA bond interactions - FENE backbone
bond_style oxdna2/fene
bond_coeff * 2.0 0.25 0.7564

# oxDNA pair interactions
pair_style hybrid/overlay oxdna2/excv oxdna2/stk oxdna2/hbond oxdna2/xstk oxdna2/coaxstk oxdna2/dh
pair_coeff * * oxdna2/excv    2.0 0.7 0.675 2.0 0.515 0.5 2.0 0.33 0.32
pair_coeff * * oxdna2/stk     seqdep 0.1 1.3523 2.6717 6.0 0.4 0.9 0.32 0.75 1.3 0 0.8 0.9 0 0.95 0.9 0 0.95 2.0 0.65 2.0 0.65
pair_coeff * * oxdna2/hbond   seqdep 0.0 8.0 0.4 0.75 0.34 0.7 1.5 0 0.7 1.5 0 0.7 1.5 0 0.7 0.46 3.141592653589793 0.7 4.0 1.5707963267948966 0.45 4.0 1.5707963267948966 0.45

label loop
variable base loop 4
  variable basemod equal 1%4
variable comp equal 1+3
pair_coeff 1 4 oxdna2/hbond   seqdep 1.0678 8.0 0.4 0.75 0.34 0.7 1.5 0 0.7 1.5 0 0.7 1.5 0 0.7 0.46 3.141592653589793 0.7 4.0 1.5707963267948966 0.45 4.0 1.5707963267948966 0.45
next base
jump in.duplex4.4type loop
variable base loop 4
  variable basemod equal 2%4
variable comp equal 2+1
pair_coeff 2 3 oxdna2/hbond   seqdep 1.0678 8.0 0.4 0.75 0.34 0.7 1.5 0 0.7 1.5 0 0.7 1.5 0 0.7 0.46 3.141592653589793 0.7 4.0 1.5707963267948966 0.45 4.0 1.5707963267948966 0.45
next base
jump in.duplex4.4type loop
variable base loop 4
  variable basemod equal 3%4
next base
jump in.duplex4.4type loop
variable base loop 4
  variable basemod equal 4%4
next base
jump in.duplex4.4type loop

pair_coeff * * oxdna2/xstk    47.5 0.575 0.675 0.495 0.655 2.25 0.791592653589793 0.58 1.7 1.0 0.68 1.7 1.0 0.68 1.5 0 0.65 1.7 0.875 0.68 1.7 0.875 0.68
pair_coeff * * oxdna2/coaxstk 58.5 0.4 0.6 0.22 0.58 2.0 2.891592653589793 0.65 1.3 0 0.8 0.9 0 0.95 0.9 0 0.95 40.0 3.116592653589793
pair_coeff * * oxdna2/dh      0.1 0.2 0.815

# Langevin dynamics
fix 1 all nve/asphere
fix 2 all langevin 0.1 0.1 25.0 457145 angmom 10

timestep 1e-4

#comm_style tiled
#fix 3 all balance 10000 1.1 rcb

#compute mol all chunk/atom molecule
#compute mychunk all vcm/chunk mol
#fix 4 all ave/time 10000 1 10000 c_mychunk[1] c_mychunk[2] c_mychunk[3] file vcm.txt mode vector

compute quat all property/atom quatw quati quatj quatk
#dump_modify quat sort id
#dump_modify quat format line "%d  %13.6le  %13.6le  %13.6le  %13.6le"

compute erot all erotate/asphere
compute ekin all ke
compute epot all pe
variable erot equal c_erot
variable ekin equal c_ekin
variable epot equal c_epot
variable etot equal c_erot+c_ekin+c_epot

#dump_modify out sort id
#dump_modify out format line "%d %d %d  %13.6le %13.6le %13.6le %d %d %d  %13.6le %13.6le %13.6le  %13.6le %13.6le %13.6le  %13.6le "

#restart 10000 config0_restart config1_restart
thermo_style custom step temp press v_ekin v_erot v_epot v_etot
thermo 100
run 1000
  update every 10 steps, delay 0 steps, check yes
Step Temp Press v_ekin v_erot v_epot v_etot
0            0 6.7769766e-05            0            0   -41.628538   -41.628538
Averages over the last 6 of 11 rows, steps 500 to 1000:
Temp Press v_ekin v_erot v_epot v_etot
0.00377085 8.55816e-05 0.141407 1.89371 -43.3524 -41.3173
Loop time of 0.292672 on 8 procs for 1000 steps with 26 atoms
