LAMMPS (4 Jan 2019)
# Compute elastic constant tensor for a crystal at finite temperature
#
# WARNING: This script attempts to measure small differences in
# statistical averages generated by finite temperature MD simulations.
# This creates many more opportunities for errors to occur, compared
# to the zero temperature version provided in examples/ELASTIC.
# Hence, it is always a good idea to start with the zero temperature
# calculation, before attempting to use this script.
#
# Written by Aidan Thompson (Sandia, athomps@sandia.gov)
#
#  This script uses the following three include files.
#
#   init.mod      (must be modified for different crystal structures)
# 	       	  Define units, MD parameters, deformation parameters,
#		  and initial configuration of the atoms and simulation cell.
#
#
#   potential.mod    (must be modified for different pair styles)
# 		     Define pair style and other attributes
#		     not stored in restart file
#
#
#   displace.mod    (displace.mod should not need to be modified)
# 		    Perform positive and negative box displacements
# 		    It uses the resultant changes
#		    in stress to compute one
# 		    row of the elastic stiffness tensor
#
#		    Inputs variables:
#		    	   dir = the Voigt deformation component
#		    		    (1,2,3,4,5,6)
#		    Global constants:
#       	    	   up = the deformation magnitude (strain units)
#       		   cfac = conversion from LAMMPS pressure units to
#               	   output units for elastic constants
#
#
#  To run this on a different system, it should only be necessary to
#  modify the files init.mod and potential.mod. In order to calculate
#  the elastic constants correctly, care must be taken to specify
#  the correct units in init.mod (units, cfac and cunits). It is also
#  important to verify that the MD sampling of stress components
#  is generating accurate statistical averages.
#  One indication of this is that the elastic constants are insensitive
#  check for finite size effects.
#

include init.mod
# NOTE: This script can be modified for different atomic structures,
# units, etc. See in.elastic for more info.
#

# Define the finite deformation size. Try several values of this
# variable to verify that results do not depend on it.
variable up equal 2.0e-2

# metal units, elastic constants in GPa
units		metal
variable cfac equal 1.0e-4
variable cunits string GPa

# Define MD parameters
variable nevery equal 10                  # sampling interval
variable nrepeat equal 10                 # number of samples
variable nfreq equal 10*10
variable nthermo equal 100
variable nequil equal 10*100
variable nrun equal 3*100
variable temp equal 2000.0                # temperature of initial sample
variable timestep equal 0.001             # timestep
variable mass1 equal 28.06                # mass
variable adiabatic equal 0                # adiabatic (1) or isothermal (2)
variable tdamp equal 0.01                 # time constant for thermostat
variable seed equal 123457                # seed for thermostat

# generate the box and atom positions using a diamond lattice
variable a equal 5.431

boundary	p p p

lattice         diamond $a
lattice         diamond 5.431
Lattice spacing in x,y,z = 5.431 5.431 5.431
region		box prism 0 3.0 0 3.0 0 3.0 0.0 0.0 0.0
create_box	1 box
Created triclinic box = (0 0 0) to (16.293 16.293 16.293) with tilt (0 0 0)
create_atoms	1 box
Created 216 atoms
  Time spent = 0.000709707 secs
mass 1 28.06
velocity	all create 2000 87287

# Compute initial state

variable thermostat equal 1
include potential.mod
# NOTE: This script can be modified for different pair styles
# See in.elastic for more info.

reset_timestep 0

# Choose potential
pair_style	sw
pair_coeff * * Si.sw Si
Reading potential file Si.sw with DATE: 2007-06-11

# Setup neighbor style
neighbor 1.0 nsq
neigh_modify once no every 1 delay 0 check yes

# Setup output

fix avp all ave/time  10 10 100 c_thermo_press mode vector
thermo		100
thermo_style custom step temp pe press f_avp[1] f_avp[2] f_avp[3] f_avp[4] f_avp[5] f_avp[6]
thermo_modify norm no

# Setup MD

timestep 0.001
fix 4 all nve
fix 5 all langevin 2000 2000 0.01 123457

run 1000
  update every 1 steps, delay 0 steps, check yes
Step Temp PotEng Press f_avp[1] f_avp[2] f_avp[3] f_avp[4] f_avp[5] f_avp[6]
0         2000    -936.7056    13698.023            0            0            0            0            0            0
Averages over the last 6 of 11 rows, steps 500 to 1000:
Temp PotEng Press f_avp[1] f_avp[2] f_avp[3] f_avp[4] f_avp[5] f_avp[6]
2051.23 -874.573 17830.6 17193.8 18222.8 16577.8 -2083.27 -378.25 -62.5186
Loop time of 0.143331 on 8 procs for 1000 steps with 216 atoms

variable thermostat equal 1

print 1
1

include potential.mod
# NOTE: This script can be modified for different pair styles
# See in.elastic for more info.

reset_timestep 0

# Choose potential
pair_style	sw
pair_coeff * * Si.sw Si
Reading potential file Si.sw with DATE: 2007-06-11

# Setup neighbor style
neighbor 1.0 nsq
neigh_modify once no every 1 delay 0 check yes

# Setup output

fix avp all ave/time  10 10 100 c_thermo_press mode vector
thermo		100
thermo_style custom step temp pe press f_avp[1] f_avp[2] f_avp[3] f_avp[4] f_avp[5] f_avp[6]
thermo_modify norm no

# Setup MD

timestep 0.001
fix 4 all nve
fix 5 all langevin 2000 2000 0.01 123457

run 300
Step Temp PotEng Press f_avp[1] f_avp[2] f_avp[3] f_avp[4] f_avp[5] f_avp[6]
0    2008.3344   -878.86769     17035.49            0            0            0            0            0            0
Loop time of 0.0435535 on 8 procs for 300 steps with 216 atoms

variable pxx0 equal f_avp[1]
variable pyy0 equal f_avp[2]
variable pzz0 equal f_avp[3]
variable pxy0 equal f_avp[4]
variable pxz0 equal f_avp[5]
variable pyz0 equal f_avp[6]

variable tmp equal lx
variable lx0 equal 16.293
variable tmp equal ly
variable ly0 equal 16.293
variable tmp equal lz
variable lz0 equal 16.293

# These formulas define the derivatives w.r.t. strain components
# Constants uses $, variables use v_
variable d1 equal -(v_pxx1-16486.529268083)/(v_delta/v_len0)*0.0001
variable d2 equal -(v_pyy1-16537.4487689976)/(v_delta/v_len0)*0.0001
variable d3 equal -(v_pzz1-18825.4909279495)/(v_delta/v_len0)*0.0001
variable d4 equal -(v_pyz1-2996.48828858076)/(v_delta/v_len0)*0.0001
variable d5 equal -(v_pxz1--1578.22659146374)/(v_delta/v_len0)*0.0001
variable d6 equal -(v_pxy1--1018.57961013871)/(v_delta/v_len0)*0.0001

# Write restart
write_restart restart.equil

# uxx Perturbation

variable dir equal 1
include displace.mod
# NOTE: This script should not need to be
# modified. See in.elastic for more info.
#
# Find which reference length to use

variable len0 equal 16.293

# Reset box and simulation parameters

clear
box tilt large
read_restart restart.equil
  restoring atom style atomic from restart
  triclinic box = (0 0 0) to (16.293 16.293 16.293) with tilt (0 0 0)
  pair style sw stores no restart info
  216 atoms
include potential.mod
# NOTE: This script can be modified for different pair styles
# See in.elastic for more info.

reset_timestep 0

# Choose potential
pair_style	sw
pair_coeff * * Si.sw Si
Reading potential file Si.sw with DATE: 2007-06-11

# Setup neighbor style
neighbor 1.0 nsq
neigh_modify once no every 1 delay 0 check yes

# Setup output

fix avp all ave/time  10 10 100 c_thermo_press mode vector
thermo		100
thermo_style custom step temp pe press f_avp[1] f_avp[2] f_avp[3] f_avp[4] f_avp[5] f_avp[6]
thermo_modify norm no

# Setup MD

timestep 0.001
fix 4 all nve
fix 5 all langevin 2000 2000 0.01 123457

# Negative deformation

variable delta equal -0.02*16.293
variable deltaxy equal -0.02*xy
variable deltaxz equal -0.02*xz
variable deltayz equal -0.02*yz
change_box all x delta 0 -0.32586 xy delta -0 xz delta -0 remap units box
  triclinic box = (0 0 0) to (15.9671 16.293 16.293) with tilt (0 0 0)
  triclinic box = (0 0 0) to (15.9671 16.293 16.293) with tilt (0 0 0)
  triclinic box = (0 0 0) to (15.9671 16.293 16.293) with tilt (0 0 0)

# Run MD

run 1000
  update every 1 steps, delay 0 steps, check yes
Step Temp PotEng Press f_avp[1] f_avp[2] f_avp[3] f_avp[4] f_avp[5] f_avp[6]
0    1947.9897   -878.46031    36115.234            0            0            0            0            0            0
Averages over the last 6 of 11 rows, steps 500 to 1000:
Temp PotEng Press f_avp[1] f_avp[2] f_avp[3] f_avp[4] f_avp[5] f_avp[6]
1995.23 -876.213 37113.8 44607.2 34504 34971.3 1352.64 2635.36 -143.001
Loop time of 0.150138 on 8 procs for 1000 steps with 216 atoms

include potential.mod
# NOTE: This script can be modified for different pair styles
# See in.elastic for more info.

reset_timestep 0

# Choose potential
pair_style	sw
pair_coeff * * Si.sw Si
Reading potential file Si.sw with DATE: 2007-06-11

# Setup neighbor style
neighbor 1.0 nsq
neigh_modify once no every 1 delay 0 check yes

# Setup output

fix avp all ave/time  10 10 100 c_thermo_press mode vector
thermo		100
thermo_style custom step temp pe press f_avp[1] f_avp[2] f_avp[3] f_avp[4] f_avp[5] f_avp[6]
thermo_modify norm no

# Setup MD

timestep 0.001
fix 4 all nve
fix 5 all langevin 2000 2000 0.01 123457

run 300
Step Temp PotEng Press f_avp[1] f_avp[2] f_avp[3] f_avp[4] f_avp[5] f_avp[6]
0      1880.51   -874.74198    36299.456            0            0            0            0            0            0
Loop time of 0.0470132 on 8 procs for 300 steps with 216 atoms

# Obtain new stress tensor

variable pxx1 equal f_avp[1]
variable pyy1 equal f_avp[2]
variable pzz1 equal f_avp[3]
variable pxy1 equal f_avp[4]
variable pxz1 equal f_avp[5]
variable pyz1 equal f_avp[6]

# Compute elastic constant from pressure tensor

variable C1neg equal 134.214011470878
variable C2neg equal 85.356487582575
variable C3neg equal 72.370267915816
variable C4neg equal -13.9901453919708
variable C5neg equal 35.596369143544
variable C6neg equal 12.4323976984564

# Reset box and simulation parameters

clear
box tilt large
read_restart restart.equil
  restoring atom style atomic from restart
  triclinic box = (0 0 0) to (16.293 16.293 16.293) with tilt (0 0 0)
  pair style sw stores no restart info
  216 atoms
include potential.mod
# NOTE: This script can be modified for different pair styles
# See in.elastic for more info.

reset_timestep 0

# Choose potential
pair_style	sw
pair_coeff * * Si.sw Si
Reading potential file Si.sw with DATE: 2007-06-11

# Setup neighbor style
neighbor 1.0 nsq
neigh_modify once no every 1 delay 0 check yes

# Setup output

fix avp all ave/time  10 10 100 c_thermo_press mode vector
thermo		100
thermo_style custom step temp pe press f_avp[1] f_avp[2] f_avp[3] f_avp[4] f_avp[5] f_avp[6]
thermo_modify norm no

# Setup MD

timestep 0.001
fix 4 all nve
fix 5 all langevin 2000 2000 0.01 123457

# Positive deformation

variable delta equal 0.02*16.293
variable deltaxy equal 0.02*xy
variable deltaxz equal 0.02*xz
variable deltayz equal 0.02*yz
change_box all x delta 0 0.32586 xy delta 0 xz delta 0 remap units box
  triclinic box = (0 0 0) to (16.6189 16.293 16.293) with tilt (0 0 0)
  triclinic box = (0 0 0) to (16.6189 16.293 16.293) with tilt (0 0 0)
  triclinic box = (0 0 0) to (16.6189 16.293 16.293) with tilt (0 0 0)

# Run MD

run 1000
  update every 1 steps, delay 0 steps, check yes
Step Temp PotEng Press f_avp[1] f_avp[2] f_avp[3] f_avp[4] f_avp[5] f_avp[6]
0    1947.9897   -878.61176   -4622.6604            0            0            0            0            0            0
Averages over the last 6 of 11 rows, steps 500 to 1000:
Temp PotEng Press f_avp[1] f_avp[2] f_avp[3] f_avp[4] f_avp[5] f_avp[6]
1959.32 -873.061 -2291.8 -8763.2 1646.4 2348.5 1732.31 482.815 1580.76
Loop time of 0.137612 on 8 procs for 1000 steps with 216 atoms

include potential.mod
# NOTE: This script can be modified for different pair styles
# See in.elastic for more info.

reset_timestep 0

# Choose potential
pair_style	sw
pair_coeff * * Si.sw Si
Reading potential file Si.sw with DATE: 2007-06-11

# Setup neighbor style
neighbor 1.0 nsq
neigh_modify once no every 1 delay 0 check yes

# Setup output

fix avp all ave/time  10 10 100 c_thermo_press mode vector
thermo		100
thermo_style custom step temp pe press f_avp[1] f_avp[2] f_avp[3] f_avp[4] f_avp[5] f_avp[6]
thermo_modify norm no

# Setup MD

timestep 0.001
fix 4 all nve
fix 5 all langevin 2000 2000 0.01 123457

run 300
Step Temp PotEng Press f_avp[1] f_avp[2] f_avp[3] f_avp[4] f_avp[5] f_avp[6]
0    1762.0076   -870.74338   -2089.2863            0            0            0            0            0            0
Loop time of 0.0394361 on 8 procs for 300 steps with 216 atoms

# Obtain new stress tensor

variable tmp equal pe
variable e1 equal -870.291980636265
variable tmp equal press
variable p1 equal -2510.45092783784
variable tmp equal pxx
variable pxx1 equal -10928.6518682521
variable tmp equal pyy
variable pyy1 equal 3217.55520669103
variable tmp equal pzz
variable pzz1 equal 179.743878047541
variable tmp equal pxy
variable pxy1 equal 2112.9792240396
variable tmp equal pxz
variable pxz1 equal 3968.57955780248
variable tmp equal pyz
variable pyz1 equal 4789.4006225623

# Compute elastic constant from pressure tensor

variable C1pos equal 137.075905681676
variable C2pos equal 66.5994678115329
variable C3pos equal 93.2287352495098
variable C4pos equal -8.9645616699077
variable C5pos equal -27.7340307463311
variable C6pos equal -15.6577941708915

# Combine positive and negative

variable C11 equal 0.5*(134.214011470878+137.075905681676)
variable C21 equal 0.5*(85.356487582575+66.5994678115329)
variable C31 equal 0.5*(72.370267915816+93.2287352495098)
variable C41 equal 0.5*(-13.9901453919708+-8.9645616699077)
variable C51 equal 0.5*(35.596369143544+-27.7340307463311)
variable C61 equal 0.5*(12.4323976984564+-15.6577941708915)

# Delete dir to make sure it is not reused

variable dir delete

# uyy Perturbation

variable dir equal 2
include displace.mod
# NOTE: This script should not need to be
# modified. See in.elastic for more info.
#
# Find which reference length to use

variable len0 equal 16.293

# Reset box and simulation parameters

clear
box tilt large
read_restart restart.equil
  restoring atom style atomic from restart
  triclinic box = (0 0 0) to (16.293 16.293 16.293) with tilt (0 0 0)
  pair style sw stores no restart info
  216 atoms
include potential.mod
# NOTE: This script can be modified for different pair styles
# See in.elastic for more info.

reset_timestep 0

# Choose potential
pair_style	sw
pair_coeff * * Si.sw Si
Reading potential file Si.sw with DATE: 2007-06-11

# Setup neighbor style
neighbor 1.0 nsq
neigh_modify once no every 1 delay 0 check yes

# Setup output

fix avp all ave/time  10 10 100 c_thermo_press mode vector
thermo		100
thermo_style custom step temp pe press f_avp[1] f_avp[2] f_avp[3] f_avp[4] f_avp[5] f_avp[6]
thermo_modify norm no

# Setup MD

timestep 0.001
fix 4 all nve
fix 5 all langevin 2000 2000 0.01 123457

# Negative deformation

variable delta equal -0.02*16.293
variable deltaxy equal -0.02*xy
variable deltaxz equal -0.02*xz
variable deltayz equal -0.02*yz
change_box all y delta 0 -0.32586 yz delta -0 remap units box
  triclinic box = (0 0 0) to (16.293 15.9671 16.293) with tilt (0 0 0)
  triclinic box = (0 0 0) to (16.293 15.9671 16.293) with tilt (0 0 0)

# Run MD

run 1000
  update every 1 steps, delay 0 steps, check yes
Step Temp PotEng Press f_avp[1] f_avp[2] f_avp[3] f_avp[4] f_avp[5] f_avp[6]
0    1947.9897   -878.36683    36024.551            0            0            0            0            0            0
Averages over the last 6 of 11 rows, steps 500 to 1000:
Temp PotEng Press f_avp[1] f_avp[2] f_avp[3] f_avp[4] f_avp[5] f_avp[6]
2015.65 -875.124 37534.5 33754.1 44890.8 34651.9 658.103 1372.21 774.396
Loop time of 0.159328 on 8 procs for 1000 steps with 216 atoms

include potential.mod
# NOTE: This script can be modified for different pair styles
# See in.elastic for more info.

reset_timestep 0

# Choose potential
pair_style	sw
pair_coeff * * Si.sw Si
Reading potential file Si.sw with DATE: 2007-06-11

# Setup neighbor style
neighbor 1.0 nsq
neigh_modify once no every 1 delay 0 check yes

# Setup output

fix avp all ave/time  10 10 100 c_thermo_press mode vector
thermo		100
thermo_style custom step temp pe press f_avp[1] f_avp[2] f_avp[3] f_avp[4] f_avp[5] f_avp[6]
thermo_modify norm no

# Setup MD

timestep 0.001
fix 4 all nve
fix 5 all langevin 2000 2000 0.01 123457

run 300
Step Temp PotEng Press f_avp[1] f_avp[2] f_avp[3] f_avp[4] f_avp[5] f_avp[6]
0    1963.1093   -872.88844    35618.637            0            0            0            0            0            0
Loop time of 0.0478142 on 8 procs for 300 steps with 216 atoms

# Obtain new stress tensor

variable pxx1 equal f_avp[1]
variable pyy1 equal f_avp[2]
variable pzz1 equal f_avp[3]
variable pxy1 equal f_avp[4]
variable pxz1 equal f_avp[5]
variable pyz1 equal f_avp[6]

# Compute elastic constant from pressure tensor

variable C1neg equal 84.0156778584505
variable C2neg equal 146.868645377799
variable C3neg equal 72.9772141553955
variable C4neg equal -30.7767367322542
variable C5neg equal 26.8340973071185
variable C6neg equal 4.42537194729929

# Reset box and simulation parameters

clear
box tilt large
read_restart restart.equil
  restoring atom style atomic from restart
  triclinic box = (0 0 0) to (16.293 16.293 16.293) with tilt (0 0 0)
  pair style sw stores no restart info
  216 atoms
include potential.mod
# NOTE: This script can be modified for different pair styles
# See in.elastic for more info.

reset_timestep 0

# Choose potential
pair_style	sw
pair_coeff * * Si.sw Si
Reading potential file Si.sw with DATE: 2007-06-11

# Setup neighbor style
neighbor 1.0 nsq
neigh_modify once no every 1 delay 0 check yes

# Setup output

fix avp all ave/time  10 10 100 c_thermo_press mode vector
thermo		100
thermo_style custom step temp pe press f_avp[1] f_avp[2] f_avp[3] f_avp[4] f_avp[5] f_avp[6]
thermo_modify norm no

# Setup MD

timestep 0.001
fix 4 all nve
fix 5 all langevin 2000 2000 0.01 123457

# Positive deformation

variable delta equal 0.02*16.293
variable deltaxy equal 0.02*xy
variable deltaxz equal 0.02*xz
variable deltayz equal 0.02*yz
change_box all y delta 0 0.32586 yz delta 0 remap units box
  triclinic box = (0 0 0) to (16.293 16.6189 16.293) with tilt (0 0 0)
  triclinic box = (0 0 0) to (16.293 16.6189 16.293) with tilt (0 0 0)

# Run MD

run 1000
  update every 1 steps, delay 0 steps, check yes
Step Temp PotEng Press f_avp[1] f_avp[2] f_avp[3] f_avp[4] f_avp[5] f_avp[6]
0    1947.9897    -878.7135   -4665.1686            0            0            0            0            0            0
Averages over the last 6 of 11 rows, steps 500 to 1000:
Temp PotEng Press f_avp[1] f_avp[2] f_avp[3] f_avp[4] f_avp[5] f_avp[6]
2050.02 -876.351 -2008.57 1075.67 -7927.65 1286.58 1382.62 -193.586 540.846
Loop time of 0.129197 on 8 procs for 1000 steps with 216 atoms

include potential.mod
# NOTE: This script can be modified for different pair styles
# See in.elastic for more info.

reset_timestep 0

# Choose potential
pair_style	sw
pair_coeff * * Si.sw Si
Reading potential file Si.sw with DATE: 2007-06-11

# Setup neighbor style
neighbor 1.0 nsq
neigh_modify once no every 1 delay 0 check yes

# Setup output

fix avp all ave/time  10 10 100 c_thermo_press mode vector
thermo		100
thermo_style custom step temp pe press f_avp[1] f_avp[2] f_avp[3] f_avp[4] f_avp[5] f_avp[6]
thermo_modify norm no

# Setup MD

timestep 0.001
fix 4 all nve
fix 5 all langevin 2000 2000 0.01 123457

run 300
Step Temp PotEng Press f_avp[1] f_avp[2] f_avp[3] f_avp[4] f_avp[5] f_avp[6]
0    2270.9187   -874.13562    316.79937            0            0            0            0            0            0
Loop time of 0.0386297 on 8 procs for 300 steps with 216 atoms

# Obtain new stress tensor

variable tmp equal pe
variable e1 equal -868.01623427434
variable tmp equal press
variable p1 equal -4111.332372121
variable tmp equal pxx
variable pxx1 equal -2520.99529554923
variable tmp equal pyy
variable pyy1 equal -11222.066128746
variable tmp equal pzz
variable pzz1 equal 1409.06430793224
variable tmp equal pxy
variable pxy1 equal -2800.14982115374
variable tmp equal pxz
variable pxz1 equal 7784.82306954517
variable tmp equal pyz
variable pyz1 equal -5707.00934565033

# Compute elastic constant from pressure tensor

variable C1pos equal 95.0376228181611
variable C2pos equal 138.797574488718
variable C3pos equal 87.0821331000863
variable C4pos equal 43.5174881711555
variable C5pos equal -46.8152483050446
variable C6pos equal 8.90785105507515

# Combine positive and negative

variable C12 equal 0.5*(84.0156778584505+95.0376228181611)
variable C22 equal 0.5*(146.868645377799+138.797574488718)
variable C32 equal 0.5*(72.9772141553955+87.0821331000863)
variable C42 equal 0.5*(-30.7767367322542+43.5174881711555)
variable C52 equal 0.5*(26.8340973071185+-46.8152483050446)
variable C62 equal 0.5*(4.42537194729929+8.90785105507515)

# Delete dir to make sure it is not reused

variable dir delete

# uzz Perturbation

variable dir equal 3
include displace.mod
# NOTE: This script should not need to be
# modified. See in.elastic for more info.
#
# Find which reference length to use

variable len0 equal 16.293

# Reset box and simulation parameters

clear
box tilt large
read_restart restart.equil
  restoring atom style atomic from restart
  triclinic box = (0 0 0) to (16.293 16.293 16.293) with tilt (0 0 0)
  pair style sw stores no restart info
  216 atoms
include potential.mod
# NOTE: This script can be modified for different pair styles
# See in.elastic for more info.

reset_timestep 0

# Choose potential
pair_style	sw
pair_coeff * * Si.sw Si
Reading potential file Si.sw with DATE: 2007-06-11

# Setup neighbor style
neighbor 1.0 nsq
neigh_modify once no every 1 delay 0 check yes

# Setup output

fix avp all ave/time  10 10 100 c_thermo_press mode vector
thermo		100
thermo_style custom step temp pe press f_avp[1] f_avp[2] f_avp[3] f_avp[4] f_avp[5] f_avp[6]
thermo_modify norm no

# Setup MD

timestep 0.001
fix 4 all nve
fix 5 all langevin 2000 2000 0.01 123457

# Negative deformation

variable delta equal -0.02*16.293
variable deltaxy equal -0.02*xy
variable deltaxz equal -0.02*xz
variable deltayz equal -0.02*yz
change_box all z delta 0 -0.32586 remap units box
  triclinic box = (0 0 0) to (16.293 16.293 15.9671) with tilt (0 0 0)

# Run MD

run 1000
  update every 1 steps, delay 0 steps, check yes
Step Temp PotEng Press f_avp[1] f_avp[2] f_avp[3] f_avp[4] f_avp[5] f_avp[6]
0    1947.9897     -878.484      36265.9            0            0            0            0            0            0
Averages over the last 6 of 11 rows, steps 500 to 1000:
Temp PotEng Press f_avp[1] f_avp[2] f_avp[3] f_avp[4] f_avp[5] f_avp[6]
2054.34 -877.249 37692.1 33760.1 33473.6 44679.6 -1058.96 -315.089 603.64
Loop time of 0.163788 on 8 procs for 1000 steps with 216 atoms

include potential.mod
# NOTE: This script can be modified for different pair styles
# See in.elastic for more info.

reset_timestep 0

# Choose potential
pair_style	sw
pair_coeff * * Si.sw Si
Reading potential file Si.sw with DATE: 2007-06-11

# Setup neighbor style
neighbor 1.0 nsq
neigh_modify once no every 1 delay 0 check yes

# Setup output

fix avp all ave/time  10 10 100 c_thermo_press mode vector
thermo		100
thermo_style custom step temp pe press f_avp[1] f_avp[2] f_avp[3] f_avp[4] f_avp[5] f_avp[6]
thermo_modify norm no

# Setup MD

timestep 0.001
fix 4 all nve
fix 5 all langevin 2000 2000 0.01 123457

run 300
Step Temp PotEng Press f_avp[1] f_avp[2] f_avp[3] f_avp[4] f_avp[5] f_avp[6]
0    2139.5427     -879.134     40892.35            0            0            0            0            0            0
Loop time of 0.0485357 on 8 procs for 300 steps with 216 atoms

# Obtain new stress tensor

variable pxx1 equal f_avp[1]
variable pyy1 equal f_avp[2]
variable pzz1 equal f_avp[3]
variable pxy1 equal f_avp[4]
variable pxz1 equal f_avp[5]
variable pyz1 equal f_avp[6]

# Compute elastic constant from pressure tensor

variable C1neg equal 94.969624870168
variable C2neg equal 90.21915495967
variable C3neg equal 131.941543247366
variable C4neg equal -26.6936137373349
variable C5neg equal 36.2845036127193
variable C6neg equal 8.53631737320858

# Reset box and simulation parameters

clear
box tilt large
read_restart restart.equil
  restoring atom style atomic from restart
  triclinic box = (0 0 0) to (16.293 16.293 16.293) with tilt (0 0 0)
  pair style sw stores no restart info
  216 atoms
include potential.mod
# NOTE: This script can be modified for different pair styles
# See in.elastic for more info.

reset_timestep 0

# Choose potential
pair_style	sw
pair_coeff * * Si.sw Si
Reading potential file Si.sw with DATE: 2007-06-11

# Setup neighbor style
neighbor 1.0 nsq
neigh_modify once no every 1 delay 0 check yes

# Setup output

fix avp all ave/time  10 10 100 c_thermo_press mode vector
thermo		100
thermo_style custom step temp pe press f_avp[1] f_avp[2] f_avp[3] f_avp[4] f_avp[5] f_avp[6]
thermo_modify norm no

# Setup MD

timestep 0.001
fix 4 all nve
fix 5 all langevin 2000 2000 0.01 123457

# Positive deformation

variable delta equal 0.02*16.293
variable deltaxy equal 0.02*xy
variable deltaxz equal 0.02*xz
variable deltayz equal 0.02*yz
change_box all z delta 0 0.32586 remap units box
  triclinic box = (0 0 0) to (16.293 16.293 16.6189) with tilt (0 0 0)

# Run MD

run 1000
  update every 1 steps, delay 0 steps, check yes
Step Temp PotEng Press f_avp[1] f_avp[2] f_avp[3] f_avp[4] f_avp[5] f_avp[6]
0    1947.9897   -878.57675   -4734.3129            0            0            0            0            0            0
Averages over the last 6 of 11 rows, steps 500 to 1000:
Temp PotEng Press f_avp[1] f_avp[2] f_avp[3] f_avp[4] f_avp[5] f_avp[6]
1958.26 -871.189 -2073.54 1723.93 1454.09 -8979.19 -613.252 661.229 2805.41
Loop time of 0.138946 on 8 procs for 1000 steps with 216 atoms

include potential.mod
# NOTE: This script can be modified for different pair styles
# See in.elastic for more info.

reset_timestep 0

# Choose potential
pair_style	sw
pair_coeff * * Si.sw Si
Reading potential file Si.sw with DATE: 2007-06-11

# Setup neighbor style
neighbor 1.0 nsq
neigh_modify once no every 1 delay 0 check yes

# Setup output

fix avp all ave/time  10 10 100 c_thermo_press mode vector
thermo		100
thermo_style custom step temp pe press f_avp[1] f_avp[2] f_avp[3] f_avp[4] f_avp[5] f_avp[6]
thermo_modify norm no

# Setup MD

timestep 0.001
fix 4 all nve
fix 5 all langevin 2000 2000 0.01 123457

run 300
Step Temp PotEng Press f_avp[1] f_avp[2] f_avp[3] f_avp[4] f_avp[5] f_avp[6]
0    1993.0333     -866.576   -2008.4446            0            0            0            0            0            0
Loop time of 0.0428372 on 8 procs for 300 steps with 216 atoms

# Obtain new stress tensor

variable tmp equal pe
variable e1 equal -863.616155849
variable tmp equal press
variable p1 equal -19.1003764113161
variable tmp equal pxx
variable pxx1 equal 3510.68722098962
variable tmp equal pyy
variable pyy1 equal 3269.59451690839
variable tmp equal pzz
variable pzz1 equal -6837.58286713197
variable tmp equal pxy
variable pxy1 equal -14535.8682509174
variable tmp equal pxz
variable pxz1 equal -3059.80222022768
variable tmp equal pyz
variable pyz1 equal -357.07949927309

# Compute elastic constant from pressure tensor

variable C1pos equal 64.8792102354669
variable C2pos equal 66.3392712604461
variable C3pos equal 128.315368975407
variable C4pos equal 16.7678389392693
variable C5pos equal 7.4078781438197
variable C6pos equal 67.5864432038935

# Combine positive and negative

variable C13 equal 0.5*(94.969624870168+64.8792102354669)
variable C23 equal 0.5*(90.21915495967+66.3392712604461)
variable C33 equal 0.5*(131.941543247366+128.315368975407)
variable C43 equal 0.5*(-26.6936137373349+16.7678389392693)
variable C53 equal 0.5*(36.2845036127193+7.4078781438197)
variable C63 equal 0.5*(8.53631737320858+67.5864432038935)

# Delete dir to make sure it is not reused

variable dir delete

# uyz Perturbation

variable dir equal 4
include displace.mod
# NOTE: This script should not need to be
# modified. See in.elastic for more info.
#
# Find which reference length to use

variable len0 equal 16.293

# Reset box and simulation parameters

clear
box tilt large
read_restart restart.equil
  restoring atom style atomic from restart
  triclinic box = (0 0 0) to (16.293 16.293 16.293) with tilt (0 0 0)
  pair style sw stores no restart info
  216 atoms
include potential.mod
# NOTE: This script can be modified for different pair styles
# See in.elastic for more info.

reset_timestep 0

# Choose potential
pair_style	sw
pair_coeff * * Si.sw Si
Reading potential file Si.sw with DATE: 2007-06-11

# Setup neighbor style
neighbor 1.0 nsq
neigh_modify once no every 1 delay 0 check yes

# Setup output

fix avp all ave/time  10 10 100 c_thermo_press mode vector
thermo		100
thermo_style custom step temp pe press f_avp[1] f_avp[2] f_avp[3] f_avp[4] f_avp[5] f_avp[6]
thermo_modify norm no

# Setup MD

timestep 0.001
fix 4 all nve
fix 5 all langevin 2000 2000 0.01 123457

# Negative deformation

variable delta equal -0.02*16.293
variable deltaxy equal -0.02*xy
variable deltaxz equal -0.02*xz
variable deltayz equal -0.02*yz
change_box all yz delta -0.32586 remap units box
  triclinic box = (0 0 0) to (16.293 16.293 16.293) with tilt (0 0 -0.32586)

# Run MD

run 1000
  update every 1 steps, delay 0 steps, check yes
Step Temp PotEng Press f_avp[1] f_avp[2] f_avp[3] f_avp[4] f_avp[5] f_avp[6]
0    1947.9897   -878.47527     15483.67            0            0            0            0            0            0
Averages over the last 6 of 11 rows, steps 500 to 1000:
Temp PotEng Press f_avp[1] f_avp[2] f_avp[3] f_avp[4] f_avp[5] f_avp[6]
2036.9 -875.167 18011.3 17561.1 18071.8 17614.8 700.041 1068.31 9720.84
Loop time of 0.150287 on 8 procs for 1000 steps with 216 atoms

include potential.mod
# NOTE: This script can be modified for different pair styles
# See in.elastic for more info.

reset_timestep 0

# Choose potential
pair_style	sw
pair_coeff * * Si.sw Si
Reading potential file Si.sw with DATE: 2007-06-11

# Setup neighbor style
neighbor 1.0 nsq
neigh_modify once no every 1 delay 0 check yes

# Setup output

fix avp all ave/time  10 10 100 c_thermo_press mode vector
thermo		100
thermo_style custom step temp pe press f_avp[1] f_avp[2] f_avp[3] f_avp[4] f_avp[5] f_avp[6]
thermo_modify norm no

# Setup MD

timestep 0.001
fix 4 all nve
fix 5 all langevin 2000 2000 0.01 123457

run 300
Step Temp PotEng Press f_avp[1] f_avp[2] f_avp[3] f_avp[4] f_avp[5] f_avp[6]
0    2099.7183   -878.97095    18166.407            0            0            0            0            0            0
Loop time of 0.0441484 on 8 procs for 300 steps with 216 atoms

# Obtain new stress tensor

variable pxx1 equal f_avp[1]
variable pyy1 equal f_avp[2]
variable pzz1 equal f_avp[3]
variable pxy1 equal f_avp[4]
variable pxz1 equal f_avp[5]
variable pyz1 equal f_avp[6]

# Compute elastic constant from pressure tensor

variable C1neg equal -6.8066862680015
variable C2neg equal -2.74890228017351
variable C3neg equal 0.102894592539997
variable C4neg equal 14.0398266713753
variable C5neg equal 21.1570039610497
variable C6neg equal 1.75778479951864

# Reset box and simulation parameters

clear
box tilt large
read_restart restart.equil
  restoring atom style atomic from restart
  triclinic box = (0 0 0) to (16.293 16.293 16.293) with tilt (0 0 0)
  pair style sw stores no restart info
  216 atoms
include potential.mod
# NOTE: This script can be modified for different pair styles
# See in.elastic for more info.

reset_timestep 0

# Choose potential
pair_style	sw
pair_coeff * * Si.sw Si
Reading potential file Si.sw with DATE: 2007-06-11

# Setup neighbor style
neighbor 1.0 nsq
neigh_modify once no every 1 delay 0 check yes

# Setup output

fix avp all ave/time  10 10 100 c_thermo_press mode vector
thermo		100
thermo_style custom step temp pe press f_avp[1] f_avp[2] f_avp[3] f_avp[4] f_avp[5] f_avp[6]
thermo_modify norm no

# Setup MD

timestep 0.001
fix 4 all nve
fix 5 all langevin 2000 2000 0.01 123457

# Positive deformation

variable delta equal 0.02*16.293
variable deltaxy equal 0.02*xy
variable deltaxz equal 0.02*xz
variable deltayz equal 0.02*yz
change_box all yz delta 0.32586 remap units box
  triclinic box = (0 0 0) to (16.293 16.293 16.293) with tilt (0 0 0.32586)

# Run MD

run 1000
  update every 1 steps, delay 0 steps, check yes
Step Temp PotEng Press f_avp[1] f_avp[2] f_avp[3] f_avp[4] f_avp[5] f_avp[6]
0    1947.9897   -879.01177    14766.846            0            0            0            0            0            0
Averages over the last 6 of 11 rows, steps 500 to 1000:
Temp PotEng Press f_avp[1] f_avp[2] f_avp[3] f_avp[4] f_avp[5] f_avp[6]
1985.68 -875.531 16495.5 17757.6 16246.6 17119.8 -1655.68 -379.157 -8610.67
Loop time of 0.150617 on 8 procs for 1000 steps with 216 atoms

include potential.mod
# NOTE: This script can be modified for different pair styles
# See in.elastic for more info.

reset_timestep 0

# Choose potential
pair_style	sw
pair_coeff * * Si.sw Si
Reading potential file Si.sw with DATE: 2007-06-11

# Setup neighbor style
neighbor 1.0 nsq
neigh_modify once no every 1 delay 0 check yes

# Setup output

fix avp all ave/time  10 10 100 c_thermo_press mode vector
thermo		100
thermo_style custom step temp pe press f_avp[1] f_avp[2] f_avp[3] f_avp[4] f_avp[5] f_avp[6]
thermo_modify norm no

# Setup MD

timestep 0.001
fix 4 all nve
fix 5 all langevin 2000 2000 0.01 123457

run 300
Step Temp PotEng Press f_avp[1] f_avp[2] f_avp[3] f_avp[4] f_avp[5] f_avp[6]
0    1922.7474   -870.91832    16044.901            0            0            0            0            0            0
Loop time of 0.0423919 on 8 procs for 300 steps with 216 atoms

# Obtain new stress tensor

variable tmp equal pe
variable e1 equal -878.251292434608
variable tmp equal press
variable p1 equal 15515.544789668
variable tmp equal pxx
variable pxx1 equal 17467.8051816002
variable tmp equal pyy
variable pyy1 equal 11234.245256534
variable tmp equal pzz
variable pzz1 equal 17844.5839308697
variable tmp equal pxy
variable pxy1 equal 3830.45464698468
variable tmp equal pxz
variable pxz1 equal -682.514936473419
variable tmp equal pyz
variable pyz1 equal -6726.08020664506

# Compute elastic constant from pressure tensor

variable C1pos equal -4.90637956758601
variable C2pos equal 26.516017562318
variable C3pos equal 4.90453498539901
variable C4pos equal 48.6128424761291
variable C5pos equal -4.47855827495161
variable C6pos equal -24.245171285617

# Combine positive and negative

variable C14 equal 0.5*(-6.8066862680015+-4.90637956758601)
variable C24 equal 0.5*(-2.74890228017351+26.516017562318)
variable C34 equal 0.5*(0.102894592539997+4.90453498539901)
variable C44 equal 0.5*(14.0398266713753+48.6128424761291)
variable C54 equal 0.5*(21.1570039610497+-4.47855827495161)
variable C64 equal 0.5*(1.75778479951864+-24.245171285617)

# Delete dir to make sure it is not reused

variable dir delete

# uxz Perturbation

variable dir equal 5
include displace.mod
# NOTE: This script should not need to be
# modified. See in.elastic for more info.
#
# Find which reference length to use

variable len0 equal 16.293

# Reset box and simulation parameters

clear
box tilt large
read_restart restart.equil
  restoring atom style atomic from restart
  triclinic box = (0 0 0) to (16.293 16.293 16.293) with tilt (0 0 0)
  pair style sw stores no restart info
  216 atoms
include potential.mod
# NOTE: This script can be modified for different pair styles
# See in.elastic for more info.

reset_timestep 0

# Choose potential
pair_style	sw
pair_coeff * * Si.sw Si
Reading potential file Si.sw with DATE: 2007-06-11

# Setup neighbor style
neighbor 1.0 nsq
neigh_modify once no every 1 delay 0 check yes

# Setup output

fix avp all ave/time  10 10 100 c_thermo_press mode vector
thermo		100
thermo_style custom step temp pe press f_avp[1] f_avp[2] f_avp[3] f_avp[4] f_avp[5] f_avp[6]
thermo_modify norm no

# Setup MD

timestep 0.001
fix 4 all nve
fix 5 all langevin 2000 2000 0.01 123457

# Negative deformation

variable delta equal -0.02*16.293
variable deltaxy equal -0.02*xy
variable deltaxz equal -0.02*xz
variable deltayz equal -0.02*yz
change_box all xz delta -0.32586 remap units box
  triclinic box = (0 0 0) to (16.293 16.293 16.293) with tilt (0 -0.32586 0)

# Run MD

run 1000
  update every 1 steps, delay 0 steps, check yes
Step Temp PotEng Press f_avp[1] f_avp[2] f_avp[3] f_avp[4] f_avp[5] f_avp[6]
0    1947.9897    -878.9991    15219.853            0            0            0            0            0            0
Averages over the last 6 of 11 rows, steps 500 to 1000:
Temp PotEng Press f_avp[1] f_avp[2] f_avp[3] f_avp[4] f_avp[5] f_avp[6]
1977.61 -873.29 15825.8 16098.4 16427.7 16078.6 276.479 9363.77 109.248
Loop time of 0.148825 on 8 procs for 1000 steps with 216 atoms

include potential.mod
# NOTE: This script can be modified for different pair styles
# See in.elastic for more info.

reset_timestep 0

# Choose potential
pair_style	sw
pair_coeff * * Si.sw Si
Reading potential file Si.sw with DATE: 2007-06-11

# Setup neighbor style
neighbor 1.0 nsq
neigh_modify once no every 1 delay 0 check yes

# Setup output

fix avp all ave/time  10 10 100 c_thermo_press mode vector
thermo		100
thermo_style custom step temp pe press f_avp[1] f_avp[2] f_avp[3] f_avp[4] f_avp[5] f_avp[6]
thermo_modify norm no

# Setup MD

timestep 0.001
fix 4 all nve
fix 5 all langevin 2000 2000 0.01 123457

run 300
Step Temp PotEng Press f_avp[1] f_avp[2] f_avp[3] f_avp[4] f_avp[5] f_avp[6]
0    1972.1161   -879.35361    16574.577            0            0            0            0            0            0
Loop time of 0.0466201 on 8 procs for 300 steps with 216 atoms

# Obtain new stress tensor

variable pxx1 equal f_avp[1]
variable pyy1 equal f_avp[2]
variable pzz1 equal f_avp[3]
variable pxy1 equal f_avp[4]
variable pxz1 equal f_avp[5]
variable pyz1 equal f_avp[6]

# Compute elastic constant from pressure tensor

variable C1neg equal 5.658742693411
variable C2neg equal 3.776223006536
variable C3neg equal -2.361159404625
variable C4neg equal -7.99783136634205
variable C5neg equal 40.344459855422
variable C6neg equal 19.3026535120045

# Reset box and simulation parameters

clear
box tilt large
read_restart restart.equil
  restoring atom style atomic from restart
  triclinic box = (0 0 0) to (16.293 16.293 16.293) with tilt (0 0 0)
  pair style sw stores no restart info
  216 atoms
include potential.mod
# NOTE: This script can be modified for different pair styles
# See in.elastic for more info.

reset_timestep 0

# Choose potential
pair_style	sw
pair_coeff * * Si.sw Si
Reading potential file Si.sw with DATE: 2007-06-11

# Setup neighbor style
neighbor 1.0 nsq
neigh_modify once no every 1 delay 0 check yes

# Setup output

fix avp all ave/time  10 10 100 c_thermo_press mode vector
thermo		100
thermo_style custom step temp pe press f_avp[1] f_avp[2] f_avp[3] f_avp[4] f_avp[5] f_avp[6]
thermo_modify norm no

# Setup MD

timestep 0.001
fix 4 all nve
fix 5 all langevin 2000 2000 0.01 123457

# Positive deformation

variable delta equal 0.02*16.293
variable deltaxy equal 0.02*xy
variable deltaxz equal 0.02*xz
variable deltayz equal 0.02*yz
change_box all xz delta 0.32586 remap units box
  triclinic box = (0 0 0) to (16.293 16.293 16.293) with tilt (0 0.32586 0)

# Run MD

run 1000
  update every 1 steps, delay 0 steps, check yes
Step Temp PotEng Press f_avp[1] f_avp[2] f_avp[3] f_avp[4] f_avp[5] f_avp[6]
0    1947.9897   -878.49354    15092.559            0            0            0            0            0            0
Averages over the last 6 of 11 rows, steps 500 to 1000:
Temp PotEng Press f_avp[1] f_avp[2] f_avp[3] f_avp[4] f_avp[5] f_avp[6]
2002.94 -875.904 17211.7 16980.2 18017.4 17099 -1523.97 -8447.81 703.332
Loop time of 0.152575 on 8 procs for 1000 steps with 216 atoms

include potential.mod
# NOTE: This script can be modified for different pair styles
# See in.elastic for more info.

reset_timestep 0

# Choose potential
pair_style	sw
pair_coeff * * Si.sw Si
Reading potential file Si.sw with DATE: 2007-06-11

# Setup neighbor style
neighbor 1.0 nsq
neigh_modify once no every 1 delay 0 check yes

# Setup output

fix avp all ave/time  10 10 100 c_thermo_press mode vector
thermo		100
thermo_style custom step temp pe press f_avp[1] f_avp[2] f_avp[3] f_avp[4] f_avp[5] f_avp[6]
thermo_modify norm no

# Setup MD

timestep 0.001
fix 4 all nve
fix 5 all langevin 2000 2000 0.01 123457

run 300
Step Temp PotEng Press f_avp[1] f_avp[2] f_avp[3] f_avp[4] f_avp[5] f_avp[6]
0    1883.8286   -871.53498     15862.24            0            0            0            0            0            0
Loop time of 0.0470237 on 8 procs for 300 steps with 216 atoms

# Obtain new stress tensor

variable tmp equal pe
variable e1 equal -876.638851844371
variable tmp equal press
variable p1 equal 16283.0093659262
variable tmp equal pxx
variable pxx1 equal 15312.2514007177
variable tmp equal pyy
variable pyy1 equal 16834.6869301924
variable tmp equal pzz
variable pzz1 equal 16702.0897668684
variable tmp equal pxy
variable pxy1 equal 6377.93376013268
variable tmp equal pxz
variable pxz1 equal -7603.9233739884
variable tmp equal pyz
variable pyz1 equal 6331.79280861602

# Compute elastic constant from pressure tensor

variable C1pos equal 5.8713893368265
variable C2pos equal -1.486190805974
variable C3pos equal 10.6170058054055
variable C4pos equal -16.6765226001763
variable C5pos equal 30.1284839126233
variable C6pos equal -36.982566851357

# Combine positive and negative

variable C15 equal 0.5*(5.658742693411+5.8713893368265)
variable C25 equal 0.5*(3.776223006536+-1.486190805974)
variable C35 equal 0.5*(-2.361159404625+10.6170058054055)
variable C45 equal 0.5*(-7.99783136634205+-16.6765226001763)
variable C55 equal 0.5*(40.344459855422+30.1284839126233)
variable C65 equal 0.5*(19.3026535120045+-36.982566851357)

# Delete dir to make sure it is not reused

variable dir delete

# uxy Perturbation

variable dir equal 6
include displace.mod
# NOTE: This script should not need to be
# modified. See in.elastic for more info.
#
# Find which reference length to use

variable len0 equal 16.293

# Reset box and simulation parameters

clear
box tilt large
read_restart restart.equil
  restoring atom style atomic from restart
  triclinic box = (0 0 0) to (16.293 16.293 16.293) with tilt (0 0 0)
  pair style sw stores no restart info
  216 atoms
include potential.mod
# NOTE: This script can be modified for different pair styles
# See in.elastic for more info.

reset_timestep 0

# Choose potential
pair_style	sw
pair_coeff * * Si.sw Si
Reading potential file Si.sw with DATE: 2007-06-11

# Setup neighbor style
neighbor 1.0 nsq
neigh_modify once no every 1 delay 0 check yes

# Setup output

fix avp all ave/time  10 10 100 c_thermo_press mode vector
thermo		100
thermo_style custom step temp pe press f_avp[1] f_avp[2] f_avp[3] f_avp[4] f_avp[5] f_avp[6]
thermo_modify norm no

# Setup MD

timestep 0.001
fix 4 all nve
fix 5 all langevin 2000 2000 0.01 123457

# Negative deformation

variable delta equal -0.02*16.293
variable deltaxy equal -0.02*xy
variable deltaxz equal -0.02*xz
variable deltayz equal -0.02*yz
change_box all xy delta -0.32586 remap units box
  triclinic box = (0 0 0) to (16.293 16.293 16.293) with tilt (-0.32586 0 0)

# Run MD

run 1000
  update every 1 steps, delay 0 steps, check yes
Step Temp PotEng Press f_avp[1] f_avp[2] f_avp[3] f_avp[4] f_avp[5] f_avp[6]
0    1947.9897   -878.96854    14655.424            0            0            0            0            0            0
Averages over the last 6 of 11 rows, steps 500 to 1000:
Temp PotEng Press f_avp[1] f_avp[2] f_avp[3] f_avp[4] f_avp[5] f_avp[6]
1995.93 -876.928 18387 17794.6 18325.2 17805.6 10493.1 1465.09 839.864
Loop time of 0.156201 on 8 procs for 1000 steps with 216 atoms

include potential.mod
# NOTE: This script can be modified for different pair styles
# See in.elastic for more info.

reset_timestep 0

# Choose potential
pair_style	sw
pair_coeff * * Si.sw Si
Reading potential file Si.sw with DATE: 2007-06-11

# Setup neighbor style
neighbor 1.0 nsq
neigh_modify once no every 1 delay 0 check yes

# Setup output

fix avp all ave/time  10 10 100 c_thermo_press mode vector
thermo		100
thermo_style custom step temp pe press f_avp[1] f_avp[2] f_avp[3] f_avp[4] f_avp[5] f_avp[6]
thermo_modify norm no

# Setup MD

timestep 0.001
fix 4 all nve
fix 5 all langevin 2000 2000 0.01 123457

run 300
Step Temp PotEng Press f_avp[1] f_avp[2] f_avp[3] f_avp[4] f_avp[5] f_avp[6]
0    1989.6398   -883.51743    15066.056            0            0            0            0            0            0
Loop time of 0.0461454 on 8 procs for 300 steps with 216 atoms

# Obtain new stress tensor

variable pxx1 equal f_avp[1]
variable pyy1 equal f_avp[2]
variable pzz1 equal f_avp[3]
variable pxy1 equal f_avp[4]
variable pxz1 equal f_avp[5]
variable pyz1 equal f_avp[6]

# Compute elastic constant from pressure tensor

variable C1neg equal 4.630424201722
variable C2neg equal 6.3619516191925
variable C3neg equal 0.978082773753504
variable C4neg equal -19.3970320447707
variable C5neg equal -1.67054860732695
variable C6neg equal 27.4462752301949

# Reset box and simulation parameters

clear
box tilt large
read_restart restart.equil
  restoring atom style atomic from restart
  triclinic box = (0 0 0) to (16.293 16.293 16.293) with tilt (0 0 0)
  pair style sw stores no restart info
  216 atoms
include potential.mod
# NOTE: This script can be modified for different pair styles
# See in.elastic for more info.

reset_timestep 0

# Choose potential
pair_style	sw
pair_coeff * * Si.sw Si
Reading potential file Si.sw with DATE: 2007-06-11

# Setup neighbor style
neighbor 1.0 nsq
neigh_modify once no every 1 delay 0 check yes

# Setup output

fix avp all ave/time  10 10 100 c_thermo_press mode vector
thermo		100
thermo_style custom step temp pe press f_avp[1] f_avp[2] f_avp[3] f_avp[4] f_avp[5] f_avp[6]
thermo_modify norm no

# Setup MD

timestep 0.001
fix 4 all nve
fix 5 all langevin 2000 2000 0.01 123457

# Positive deformation

variable delta equal 0.02*16.293
variable deltaxy equal 0.02*xy
variable deltaxz equal 0.02*xz
variable deltayz equal 0.02*yz
change_box all xy delta 0.32586 remap units box
  triclinic box = (0 0 0) to (16.293 16.293 16.293) with tilt (0.32586 0 0)

# Run MD

run 1000
  update every 1 steps, delay 0 steps, check yes
Step Temp PotEng Press f_avp[1] f_avp[2] f_avp[3] f_avp[4] f_avp[5] f_avp[6]
0    1947.9897   -878.53629    15550.885            0            0            0            0            0            0
Averages over the last 6 of 11 rows, steps 500 to 1000:
Temp PotEng Press f_avp[1] f_avp[2] f_avp[3] f_avp[4] f_avp[5] f_avp[6]
1966.53 -871.919 17524.6 15932.5 16948 17342.4 -7519.26 -1051.79 2006
Loop time of 0.15568 on 8 procs for 1000 steps with 216 atoms

include potential.mod
# NOTE: This script can be modified for different pair styles
# See in.elastic for more info.

reset_timestep 0

# Choose potential
pair_style	sw
pair_coeff * * Si.sw Si
Reading potential file Si.sw with DATE: 2007-06-11

# Setup neighbor style
neighbor 1.0 nsq
neigh_modify once no every 1 delay 0 check yes

# Setup output

fix avp all ave/time  10 10 100 c_thermo_press mode vector
thermo		100
thermo_style custom step temp pe press f_avp[1] f_avp[2] f_avp[3] f_avp[4] f_avp[5] f_avp[6]
thermo_modify norm no

# Setup MD

timestep 0.001
fix 4 all nve
fix 5 all langevin 2000 2000 0.01 123457

run 300
Step Temp PotEng Press f_avp[1] f_avp[2] f_avp[3] f_avp[4] f_avp[5] f_avp[6]
0    1755.7134   -875.46407    16000.141            0            0            0            0            0            0
Loop time of 0.045601 on 8 procs for 300 steps with 216 atoms

# Obtain new stress tensor

variable tmp equal pe
variable e1 equal -872.517244612991
variable tmp equal press
variable p1 equal 18334.4160693197
variable tmp equal pxx
variable pxx1 equal 19540.2693056725
variable tmp equal pyy
variable pyy1 equal 16204.7265958723
variable tmp equal pzz
variable pzz1 equal 19258.2523064142
variable tmp equal pxy
variable pxy1 equal 3384.88559983138
variable tmp equal pxz
variable pxz1 equal 6492.267410761
variable tmp equal pyz
variable pyz1 equal 955.959945272458

# Compute elastic constant from pressure tensor

variable C1pos equal -15.2687001879475
variable C2pos equal 1.66361086562651
variable C3pos equal -2.1638068923235
variable C4pos equal 10.2026417165415
variable C5pos equal -40.3524700111237
variable C6pos equal -22.0173260498505

# Combine positive and negative

variable C16 equal 0.5*(4.630424201722+-15.2687001879475)
variable C26 equal 0.5*(6.3619516191925+1.66361086562651)
variable C36 equal 0.5*(0.978082773753504+-2.1638068923235)
variable C46 equal 0.5*(-19.3970320447707+10.2026417165415)
variable C56 equal 0.5*(-1.67054860732695+-40.3524700111237)
variable C66 equal 0.5*(27.4462752301949+-22.0173260498505)

# Delete dir to make sure it is not reused

variable dir delete

# Output final values

variable C11all equal 135.644958576277
variable C22all equal 142.833109933258
variable C33all equal 130.128456111387

variable C12all equal 0.5*(89.5266503383058+75.9779776970539)
variable C13all equal 0.5*(79.9244175528175+82.7995015826629)
variable C23all equal 0.5*(78.2792131100581+80.0296736277409)

variable C44all equal 31.3263345737522
variable C55all equal 35.2364718840226
variable C66all equal 2.7144745901722

variable C14all equal 0.5*(-5.85653291779376+-11.4773535309393)
variable C15all equal 0.5*(5.76506601511875+3.93116919860645)
variable C16all equal 0.5*(-5.31913799311275+-1.61269823621755)

variable C24all equal 0.5*(11.8835576410722+6.37037571945065)
variable C25all equal 0.5*(1.145016100281+-9.99057549896305)
variable C26all equal 0.5*(4.01278124240951+6.66661150118722)

variable C34all equal 0.5*(2.5037147889695+-4.9628873990328)
variable C35all equal 0.5*(4.12792320039025+21.8461908782695)
variable C36all equal 0.5*(-0.592862059284998+38.061380288551)

variable C45all equal 0.5*(-12.3371769832592+8.33922284304905)
variable C46all equal 0.5*(-4.5971951641146+-11.2436932430492)
variable C56all equal 0.5*(-21.0115093092253+-8.83995666967625)

# Average moduli for cubic crystals

variable C11cubic equal (135.644958576277+142.833109933258+130.128456111387)/3.0
variable C12cubic equal (82.7523140176799+81.3619595677402+79.1544433688995)/3.0
variable C44cubic equal (31.3263345737522+35.2364718840226+2.7144745901722)/3.0

variable bulkmodulus equal (136.202174873641+2*81.0895723181065)/3.0
variable shearmodulus1 equal 23.0924270159823
variable shearmodulus2 equal (136.202174873641-81.0895723181065)/2.0
variable poissonratio equal 1.0/(1.0+136.202174873641/81.0895723181065)

# For Stillinger-Weber silicon, the analytical results
# are known to be (E. R. Cowley, 1988):
#               C11 = 151.4 GPa
#               C12 = 76.4 GPa
#               C44 = 56.4 GPa

print "========================================="
=========================================
print "Components of the Elastic Constant Tensor"
Components of the Elastic Constant Tensor
print "========================================="
=========================================

Elastic Constant C11all = 135.644958576277 GPa
Elastic Constant C22all = 142.833109933258 GPa
Elastic Constant C33all = 130.128456111387 GPa

Elastic Constant C12all = 82.7523140176799 GPa
Elastic Constant C13all = 81.3619595677402 GPa
Elastic Constant C23all = 79.1544433688995 GPa

Elastic Constant C44all = 31.3263345737522 GPa
Elastic Constant C55all = 35.2364718840226 GPa
Elastic Constant C66all = 2.7144745901722 GPa

Elastic Constant C14all = -8.66694322436653 GPa
Elastic Constant C15all = 4.8481176068626 GPa
Elastic Constant C16all = -3.46591811466515 GPa

Elastic Constant C24all = 9.12696668026143 GPa
Elastic Constant C25all = -4.42277969934103 GPa
Elastic Constant C26all = 5.33969637179836 GPa

Elastic Constant C34all = -1.22958630503165 GPa
Elastic Constant C35all = 12.9870570393299 GPa
Elastic Constant C36all = 18.734259114633 GPa

Elastic Constant C45all = -1.99897707010507 GPa
Elastic Constant C46all = -7.9204442035819 GPa
Elastic Constant C56all = -14.9257329894508 GPa

print "========================================="
=========================================
print "Average properties for a cubic crystal"
Average properties for a cubic crystal
print "========================================="
=========================================

Bulk Modulus = 99.460439836618 GPa
Shear Modulus 1 = 23.0924270159823 GPa
Shear Modulus 2 = 27.5563012777673 GPa
Poisson Ratio = 0.373182936609873
