LAMMPS (6 Jul 2017)
# 2d micelle simulation

dimension	2

neighbor	0.3 bin
neigh_modify	delay 5

atom_style	bond

# Soft potential push-off

read_data	data.micelle
  orthogonal box = (0 0 -0.1) to (35.8569 35.8569 0.1)
  reading atoms ...
  1200 atoms
  scanning bonds ...
  reading bonds ...
  300 bonds
special_bonds	fene

pair_style	soft 1.12246
pair_coeff	* * 0.0 1.12246

bond_style 	harmonic
bond_coeff	1 50.0 0.75

velocity	all create 0.45 2349852

variable	prefactor equal ramp(1.0,20.0)

fix		1 all nve
fix		2 all temp/rescale 100 0.45 0.45 0.02 1.0
fix		3 all adapt 1 pair soft a * * v_prefactor
fix		4 all enforce2d

thermo		50
run		1000
  update every 1 steps, delay 5 steps, check yes
Step Temp E_pair E_mol TotEng Press
0         0.45   0.40003481 2.2200223e-06   0.84966203   0.78952518
Averages over the last 11 of 21 rows, steps 500 to 1000:
Temp E_pair E_mol TotEng Press
0.482152 0.519869 0.0894584 1.09108 5.4066
Loop time of 0.0901614 on 4 procs for 1000 steps with 1200 atoms

unfix		3

# Main run

pair_style	lj/cut 2.5

# solvent/head - full-size and long-range

pair_coeff	1 1 1.0 1.0 2.5
pair_coeff	2 2 1.0 1.0 2.5
pair_coeff	1 2 1.0 1.0 2.5

# tail/tail - size-averaged and long-range

pair_coeff	3 3 1.0 0.75 2.5
pair_coeff	4 4 1.0 0.50 2.5
pair_coeff	3 4 1.0 0.67 2.5

# solvent/tail - full-size and repulsive

pair_coeff	1 3 1.0 1.0 1.12246
pair_coeff	1 4 1.0 1.0 1.12246

# head/tail - size-averaged and repulsive

pair_coeff	2 3 1.0 0.88 1.12246
pair_coeff	2 4 1.0 0.75 1.12246

thermo		1000

#dump		1 all atom 2000 dump.micelle

#dump		2 all image 2000 image.*.jpg type type zoom 1.6
#dump_modify	2 pad 5 adiam 1 0.5 adiam 2 1.5 adiam 3 1.0 adiam 4 0.75

#dump		3 all movie 2000 movie.mpg type type zoom 1.6
#dump_modify	3 pad 5 adiam 1 0.5 adiam 2 1.5 adiam 3 1.0 adiam 4 0.75

reset_timestep	0
group solvent   molecule 0
750 atoms in group solvent
group solute    subtract all solvent
450 atoms in group solute
unfix 1
unfix 2
unfix 4
fix		1 solvent nve
fix		2 solvent temp/rescale 100 0.45 0.45 0.02 1.0
fix		5 solute rigid molecule langevin 0.45 0.45 0.5 112211
150 rigid bodies with 450 atoms
fix		4 all enforce2d
run		20000
  update every 1 steps, delay 5 steps, check yes
Step Temp E_pair E_mol TotEng Press
0   0.44725304   -1.7056163   0.08808163   -1.2545143    1.3139355
Averages over the last 11 of 21 rows, steps 10000 to 20000:
Temp E_pair E_mol TotEng Press
0.450234 -2.02023 0.0882735 -1.56651 -0.476888
Loop time of 3.44131 on 4 procs for 20000 steps with 1200 atoms

unfix 5
unfix 4
fix		5 solute rigid/small molecule langevin 0.45 0.45 0.5 112211
150 rigid bodies with 450 atoms
  36.5274 = max distance from body owner to body atom
fix		4 all enforce2d
run		20000
Step Temp E_pair E_mol TotEng Press
20000   0.44956788   -2.0380079  0.087952521   -1.5851561   0.74859206
Averages over the last 11 of 21 rows, steps 30000 to 40000:
Temp E_pair E_mol TotEng Press
0.447055 -2.06745 0.088707 -1.61588 0.111318
Loop time of 2.53232 on 4 procs for 20000 steps with 1200 atoms
